14
Properties=species:S:1:pos:R:3 energy=-4305.138647313924 name=nbu_straight smiles=CCCC config_type=start_0 pbc="F F F"
C       -1.88016436      -0.18960297      -0.19917586
C       -0.63175548      -0.19215812       0.71846752
C        0.66219248       0.07063032      -0.05048623
C        1.87410577       0.07241851       0.79526137
H       -2.85066351      -0.34652239       0.40073613
H       -1.84804604       0.89871417      -0.77079809
H       -1.75566227      -0.98751472      -0.76020357
H       -0.92734747       0.57261081       1.54364390
H       -0.50572013      -1.18530497       1.19974344
H        0.83153289      -0.64662691      -0.97192591
H        0.60603881       0.97879802      -0.42959193
H        1.83666967       0.82886050       1.62990377
H        1.99154559      -0.94130843       1.15742980
H        2.75657119       0.27386941       0.30822337
14
Properties=species:S:1:pos:R:3 energy=-4305.138647313924 name=nbu_straight smiles=CCCC config_type=start_1 pbc="F F F"
C       -1.88119839      -0.19288417      -0.17114594
C       -0.64825790      -0.21987153       0.71269816
C        0.65667453       0.11782809      -0.08835671
C        1.90891716       0.05166969       0.82327452
H       -2.82636376      -0.47775150       0.39623909
H       -2.19105869       0.74668390      -0.49126019
H       -1.91370962      -0.72760381      -1.20238695
H       -0.58424235       0.51637450       1.58007362
H       -0.48305569      -1.21245775       1.12368159
H        0.80754148      -0.57203568      -0.89598253
H        0.47561622       1.12627013      -0.52038384
H        1.83884328       0.82558627       1.63216406
H        2.07495153      -0.99868728       1.24798456
H        2.79556282       0.27325773       0.28922525
14
Properties=species:S:1:pos:R:3 energy=-4305.138647313924 name=nbu_straight smiles=CCCC config_type=start_2 pbc="F F F"
C       -1.88124439      -0.20864139      -0.16766305
C       -0.64337309      -0.19901301       0.69857654
C        0.61428856       0.11817805      -0.06306882
C        1.92050750       0.04096513       0.82420016
H       -2.79568930      -0.43041572       0.40260438
H       -2.00952683       0.86994496      -0.63424714
H       -1.85890469      -0.88014237      -1.01721682
H       -0.64689358       0.48409572       1.54732376
H       -0.60412058      -1.17551816       1.14201765
H        0.73997203      -0.61583219      -0.93363882
H        0.56600619       1.11769768      -0.55934020
H        1.90743341       0.73602607       1.66083051
H        2.08077866      -0.87502238       1.23913186
H        2.92464945       0.33147936       0.12617511
14
Properties=species:S:1:pos:R:3 energy=-4305.138647313924 name=nbu_straight smiles=CCCC config_type=start_3 pbc="F F F"
C       -1.90365632      -0.16428641      -0.18818297
C       -0.62224777      -0.19876711       0.70402550
C        0.62859878       0.08455433      -0.07631456
C        1.91290951       0.05427906       0.81998929
H       -2.75924681      -0.39830812       0.37116125
H       -1.88144992       0.87140537      -0.68504709
H       -1.75266254      -0.98556122      -0.84069895
H       -0.88372018       0.55814699       1.52635116
H       -0.49675038      -1.41283771       1.17141307
H        0.66106974      -0.64519258      -0.77221254
H        0.55641201       1.15361749      -0.65422873
H        2.04688003       0.90981442       1.70322987
H        2.03649740      -1.01491982       1.12694300
H        2.71231330       0.23722121       0.41444205
14
Properties=species:S:1:pos:R:3 energy=-4305.138647313924 name=nbu_straight smiles=CCCC config_type=start_4 pbc="F F F"
C       -1.87851665      -0.19012747      -0.17749741
C       -0.64713774      -0.23394194       0.71998156
C        0.62303935       0.11026863      -0.06277457
C        1.93696328       0.06322807       0.79474909
H       -2.77646586      -0.40364835       0.40378088
H       -1.94550331       0.82053943      -0.71782401
H       -1.80312533      -0.96216397      -0.84997496
H       -0.88911758       0.55162319       1.54323035
H       -0.65619402      -1.08104174       1.15935343
H        0.75650616      -0.61612499      -1.00690188
H        0.53043255       1.06909231      -0.46609609
H        2.02945112       0.91189601       1.67509340
H        2.03044105      -0.93094455       1.04301416
H        2.73950868       0.22752605       0.39982125
14
Properties=species:S:1:pos:R:3 energy=-4305.138647313924 name=nbu_straight smiles=CCCC config_type=start_5 pbc="F F F"
C       -1.85188936      -0.17885893      -0.18892609
C       -0.64839302      -0.16405612       0.71770637
C        0.66084463       0.06483747      -0.05821478
C        1.87029056       0.04213317       0.82212222
H       -2.72746838      -0.46355155       0.36808259
H       -1.95551928       0.86577432      -0.74852769
H       -1.77638856      -0.91309739      -0.88735534
H       -0.97722876       0.64764904       1.52814352
H       -0.47612910      -1.30278108       1.15389604
H        0.84993811      -0.57710725      -0.78397298
H        0.55660177       1.07942174      -0.55564591
H        1.96502618       0.78675215       1.63280187
H        1.97818308      -1.05474705       1.05423933
H        2.62067110       0.34464979       0.20439110
14
Properties=species:S:1:pos:R:3 energy=-4305.138647313924 name=nbu_straight smiles=CCCC config_type=start_6 pbc="F F F"
C       -1.89192141      -0.18917476      -0.20049377
C       -0.65432771      -0.24742423       0.70913388
C        0.65682735       0.10657338      -0.05655899
C        1.91722994       0.07124374       0.80876219
H       -2.80044974      -0.36560683       0.38982620
H       -1.85695093       0.86200100      -0.81680164
H       -1.79184613      -0.99465605      -0.78484099
H       -0.96973902       0.59346968       1.52761532
H       -0.46455552      -1.23412607       1.21060005
H        0.75545622      -0.58352657      -0.81740570
H        0.49285924       1.14211274      -0.51700155
H        1.91507922       0.91387016       1.64195611
H        2.01817431      -0.92453411       1.21451274
H        2.79605908       0.27605568       0.29705415
14
Properties=species:S:1:pos:R:3 energy=-4305.138647313924 name=nbu_straight smiles=CCCC config_type=start_7 pbc="F F F"
C       -1.88651790      -0.18958423      -0.15364801
C       -0.61267054      -0.17328929       0.71009425
C        0.65559033       0.07313854      -0.06921144
C        1.88954397       0.04567767       0.80286507
H       -2.83337024      -0.50515222       0.41586583
H       -2.09848626       0.85206673      -0.57892936
H       -1.82900711      -0.77852566      -1.10210011
H       -0.62336215       0.53873452       1.56199324
H       -0.68130255      -1.27336310       1.11667350
H        0.78976645      -0.62211474      -0.90283401
H        0.58400542       1.10240593      -0.63581846
H        1.74929022       0.87034963       1.62804740
H        2.03753984      -0.96264886       1.23194452
H        2.78230239       0.28755807       0.26200029
14
Properties=species:S:1:pos:R:3 energy=-4305.138647313924 name=nbu_straight smiles=CCCC config_type=start_8 pbc="F F F"
C       -1.85899218      -0.16857226      -0.18175663
C       -0.65983852      -0.21168588       0.70387392
C        0.65012209       0.09773948      -0.03156679
C        1.91415092       0.04385679       0.79543993
H       -2.83166621      -0.39612234       0.40204714
H       -1.95971349       0.84162137      -0.84355296
H       -1.79179222      -0.98793589      -0.86714432
H       -0.91108189       0.58429015       1.54819751
H       -0.61873995      -1.11470080       1.21267407
H        0.80904193      -0.63812332      -0.97072472
H        0.57127566       1.06845699      -0.46049968
H        1.74171428       0.70442849       1.59937816
H        2.04660743      -0.94273108       1.26980297
H        2.82824246       0.32577058       0.15559058
14
Properties=species:S:1:pos:R:3 energy=-4305.138647313924 name=nbu_straight smiles=CCCC config_type=start_9 pbc="F F F"
C       -1.88489259      -0.17714510      -0.15810123
C       -0.63156094      -0.22775049       0.70488596
C        0.61611420       0.10358831      -0.06451380
C        1.92560334       0.06802556       0.79448638
H       -2.77619664      -0.38670957       0.43011890
H       -1.98280832       0.80891407      -0.70238100
H       -1.77324216      -0.94433522      -0.91540841
H       -0.85518005       0.49505325       1.51544753
H       -0.54906292      -1.04321689       1.20235754
H        0.74011247      -0.66959208      -1.06337383
H        0.57173122       1.00763964      -0.36398121
H        1.84833197       0.78576899       1.58359878
H        2.06044443      -0.94110225       1.25160622
H        2.84000910       0.26810863       0.21796910
14
Properties=species:S:1:pos:R:3 energy=-4305.138647313924 name=nbu_straight smiles=CCCC config_type=start_10 pbc="F F F"
C       -1.88269304      -0.18521192      -0.13661758
C       -0.64563583      -0.16677976       0.68720011
C        0.67490999       0.07410787      -0.05806691
C        1.88187954       0.03879489       0.79833837
H       -2.78300516      -0.35571888       0.46176895
H       -1.92421773       0.90166919      -0.88938390
H       -1.79595454      -0.99359635      -0.85715617
H       -0.89222664       0.67533772       1.50894359
H       -0.52649335      -1.31722374       1.15323216
H        0.77493671      -0.57075684      -0.76274655
H        0.52964198       1.14280611      -0.62551706
H        1.84116143       0.64337121       1.60265390
H        2.03954641      -0.95167953       1.24052823
H        2.82292222       0.27638648       0.15533630
14
Properties=species:S:1:pos:R:3 energy=-4305.138647313924 name=nbu_straight smiles=CCCC config_type=start_11 pbc="F F F"
C       -1.89163734      -0.18706211      -0.20547373
C       -0.65819559      -0.23104975       0.71061869
C        0.66356900       0.10005604      -0.08314681
C        1.91550103       0.07690788       0.83707966
H       -2.83737859      -0.43270961       0.37668411
H       -2.03894169       0.82093597      -0.60686639
H       -1.81815999      -0.95077661      -0.92537982
H       -0.79798474       0.46749724       1.53105670
H       -0.45794498      -1.36161405       1.14915598
H        0.80103607      -0.50151972      -0.69298870
H        0.52366858       1.22397687      -0.71118369
H        2.04875672       1.04667913       1.72047373
H        2.05648703      -1.08731995       1.03722170
H        2.59713378       0.24998517       0.48854244
14
Properties=species:S:1:pos:R:3 energy=-4305.138647313924 name=nbu_straight smiles=CCCC config_type=start_12 pbc="F F F"
C       -1.89472851      -0.17077328      -0.16254050
C       -0.61050692      -0.19177213       0.70227837
C        0.61627713       0.07078118      -0.07215557
C        1.92089723       0.06022904       0.82313475
H       -2.91469297      -0.41777817       0.45088198
H       -1.82748765       0.90288243      -0.81679645
H       -1.71265205      -1.08068252      -0.83088169
H       -0.91924674       0.62508708       1.51682547
H       -0.59195440      -1.25264367       1.17943530
H        0.69631638      -0.65589571      -0.88289466
H        0.51083450       1.10359864      -0.56315400
H        1.93963541       0.69872867       1.61437560
H        2.03604876      -0.88033123       1.16100217
H        2.82808548       0.31740309       0.16061780
14
Properties=species:S:1:pos:R:3 energy=-4305.138647313924 name=nbu_straight smiles=CCCC config_type=start_13 pbc="F F F"
C       -1.90099189      -0.18824720      -0.14176069
C       -0.64678181      -0.21437817       0.69787370
C        0.64973062       0.10905653      -0.09627678
C        1.92152062       0.06443501       0.82117767
H       -2.85181342      -0.40073236       0.43996430
H       -2.00828329       0.85054305      -0.64363849
H       -1.78007155      -0.96709035      -0.92088610
H       -0.76355845       0.53124547       1.54092814
H       -0.57034277      -1.36135176       1.12508216
H        0.75047944      -0.56666319      -0.87380208
H        0.59189338       1.11765532      -0.64569393
H        2.12370331       0.93127890       1.68194821
H        2.03153816      -1.04294003       0.94995305
H        2.62177322       0.23976385       0.45148902
14
Properties=species:S:1:pos:R:3 energy=-4305.138647313924 name=nbu_straight smiles=CCCC config_type=start_14 pbc="F F F"
C       -1.87464163      -0.20082155      -0.16048367
C       -0.62823940      -0.19076247       0.70422918
C        0.64941166       0.10553058      -0.07469244
C        1.89680362       0.06218850       0.80876517
H       -2.80796885      -0.41270036       0.42570514
H       -2.18853915       0.76268720      -0.47619100
H       -1.87915950      -0.78069061      -1.07985991
H       -0.55605719       0.37263310       1.51002685
H       -0.64948508      -1.13548930       1.15136943
H        0.76362262      -0.68206022      -1.07177095
H        0.57918986       1.05292291      -0.44646308
H        1.83510475       0.79500336       1.63796479
H        2.02792774      -0.99602990       1.21636433
H        2.78368347       0.29192436       0.27621808
14
Properties=species:S:1:pos:R:3 energy=-4305.138647313924 name=nbu_straight smiles=CCCC config_type=start_15 pbc="F F F"
C       -1.90300167      -0.17347157      -0.18074760
C       -0.62876415      -0.22936227       0.70912956
C        0.64816034       0.10706379      -0.08567766
C        1.90425847       0.06764796       0.83043447
H       -2.79398696      -0.47291426       0.41732594
H       -2.05811872       0.82721838      -0.50976949
H       -1.87576307      -0.85895238      -1.15664996
H       -0.56663481       0.39337255       1.54292445
H       -0.50561292      -1.13087158       1.18178232
H        0.69614981      -0.68737019      -0.93743389
H        0.55723140       1.04408827      -0.50125168
H        1.83217949       0.79869199       1.65977318
H        2.03564200      -0.90210944       1.29421516
H        2.85758296       0.30797355       0.20811828
14
Properties=species:S:1:pos:R:3 energy=-4305.138647313924 name=nbu_straight smiles=CCCC config_type=start_16 pbc="F F F"
C       -1.89196708      -0.18208197      -0.20342727
C       -0.65681216      -0.23188203       0.70176201
C        0.67187517       0.10045528      -0.06454782
C        1.90299604       0.07527633       0.82414089
H       -2.77324605      -0.38023796       0.40178234
H       -2.08475909       0.81343294      -0.52494491
H       -1.82889788      -0.87199846      -1.05215971
H       -0.61595146       0.42225644       1.53014371
H       -0.48594042      -1.16243405       1.17294960
H        0.81313915      -0.60717989      -0.95753874
H        0.44994038       1.12412337      -0.42404914
H        1.77586294       0.76793613       1.66974193
H        2.03874215      -0.95839320       1.33222627
H        2.82507493       0.29219977       0.23211933
14
Properties=species:S:1:pos:R:3 energy=-4305.138647313924 name=nbu_straight smiles=CCCC config_type=start_17 pbc="F F F"
C       -1.88898733      -0.16776409      -0.19472301
C       -0.63809346      -0.20142482       0.71522728
C        0.65339009       0.09593044      -0.06117238
C        1.91582097       0.04231452       0.81194667
H       -2.87487536      -0.37444992       0.37378863
H       -1.98469961       0.82130918      -0.73339828
H       -1.76006908      -0.91446430      -0.78718166
H       -0.95487411       0.51547556       1.54023215
H       -0.50779480      -1.18177602       1.19617009
H        0.73741252      -0.67033636      -0.95898435
H        0.60178729       1.08495583      -0.52041250
H        1.99358560       0.88433760       1.67720741
H        2.00128122      -1.05215113       1.07192534
H        2.67149348       0.24012602       0.36198863
14
Properties=species:S:1:pos:R:3 energy=-4305.138647313924 name=nbu_straight smiles=CCCC config_type=start_18 pbc="F F F"
C       -1.88464479      -0.18448287      -0.16651184
C       -0.63003575      -0.21627453       0.69527307
C        0.63398723       0.09553897      -0.06439349
C        1.90426152       0.07174185       0.80996439
H       -2.78560991      -0.44479415       0.38717544
H       -1.98094482       0.83200622      -0.60745876
H       -1.76182614      -0.91740888      -1.05159853
H       -0.73164743       0.52349129       1.54346228
H       -0.57820192      -1.15620866       1.17771782
H        0.76004790      -0.63303436      -0.93653060
H        0.51735377       1.01211513      -0.39665703
H        1.69804924       0.69881544       1.62080836
H        2.07824812      -0.87051935       1.39971739
H        2.92877071       0.33858961       0.04799003
14
Properties=species:S:1:pos:R:3 energy=-4305.138647313924 name=nbu_straight smiles=CCCC config_type=start_19 pbc="F F F"
C       -1.87523794      -0.18390314      -0.18313598
C       -0.62924437      -0.21204848       0.69948851
C        0.65866641       0.10729952      -0.06446869
C        1.88583447       0.06572042       0.81741548
H       -2.80249899      -0.46993617       0.41747187
H       -2.22248606       0.75257549      -0.42562667
H       -1.86119381      -0.71215299      -1.22340503
H       -0.52495808       0.34077749       1.57054244
H       -0.53193248      -1.09387473       1.22027709
H        0.75635564      -0.67240911      -1.06759513
H        0.64308885       1.01290540      -0.41415697
H        1.61995255       0.68820844       1.59674887
H        2.00605698      -0.91185115       1.42056668
H        2.86534245       0.32272636       0.14990352
14
Properties=species:S:1:pos:R:3 energy=-4305.138647313924 name=nbu_straight smiles=CCCC config_type=start_20 pbc="F F F"
C       -1.88678461      -0.15252621      -0.20113789
C       -0.61382963      -0.21985234       0.71705059
C        0.66252541       0.06998734      -0.06831474
C        1.85972468       0.07299836       0.82069344
H       -2.76080582      -0.39194217       0.38436176
H       -2.05923936       0.86154238      -0.49535735
H       -1.83526454      -0.83196634      -1.11279960
H       -0.63484385       0.37842524       1.54791974
H       -0.49739265      -1.15731714       1.17109374
H        0.74707388      -0.75524427      -0.98179876
H        0.59499003       1.02550285      -0.49057292
H        1.80422656       0.92880152       1.70143484
H        1.99305908      -0.98023938       1.24217015
H        2.81518047       0.25666059       0.29044271
14
Properties=species:S:1:pos:R:3 energy=-4305.138647313924 name=nbu_straight smiles=CCCC config_type=start_21 pbc="F F F"
C       -1.90121160      -0.20293098      -0.15205490
C       -0.62824299      -0.23511763       0.69227058
C        0.64718258       0.11718180      -0.09035316
C        1.92855977       0.07222982       0.82258781
H       -2.86371275      -0.42315986       0.41674274
H       -2.10455280       0.80094997      -0.57205379
H       -1.82650643      -0.89567720      -1.01242222
H       -0.71060834       0.44663983       1.53872380
H       -0.59543700      -1.17716607       1.16274682
H        0.75001400      -0.58968883      -0.87991783
H        0.49763940       1.12424673      -0.54211204
H        1.87238514       0.86482160       1.66606347
H        2.01513036      -0.87067665       1.16378830
H        2.83902463       0.28354281       0.26568014
14
Properties=species:S:1:pos:R:3 energy=-4305.138647313924 name=nbu_straight smiles=CCCC config_type=start_22 pbc="F F F"
C       -1.91068331      -0.20371229      -0.19766114
C       -0.64584353      -0.21552376       0.69091396
C        0.64478635       0.13008151      -0.04952666
C        1.92425847       0.04612789       0.82733991
H       -2.79970352      -0.44329645       0.38066222
H       -2.08490228       0.84246742      -0.51200356
H       -1.82917833      -0.85113657      -1.06381333
H       -0.62742073       0.39499662       1.50730327
H       -0.53192002      -1.22298682       1.15861099
H        0.76563950      -0.58369071      -0.92701891
H        0.54002321       1.16506107      -0.56854148
H        1.78939341       0.72235612       1.61619329
H        2.07930767      -0.83476092       1.44895386
H        2.97448565       0.30799490       0.18320359
14
Properties=species:S:1:pos:R:3 energy=-4305.138647313924 name=nbu_straight smiles=CCCC config_type=start_23 pbc="F F F"
C       -1.90413929      -0.17219353      -0.20170536
C       -0.63412672      -0.23371713       0.69479395
C        0.67080191       0.08146818      -0.05297318
C        1.89830666       0.09791030       0.81934629
H       -2.75797840      -0.41837950       0.41083909
H       -1.87937862       0.87290762      -0.72983644
H       -1.75786400      -1.02676610      -0.83861589
H       -0.98276099       0.45376834       1.51362301
H       -0.45559667      -1.32750433       1.17910548
H        0.74962388      -0.59258031      -0.74952835
H        0.53419944       1.13771223      -0.59936426
H        1.81518632       0.90538185       1.64085779
H        2.07804084      -1.01708639       1.21386139
H        2.71439641       0.31347905       0.32099519
14
Properties=species:S:1:pos:R:3 energy=-4305.138647313924 name=nbu_straight smiles=CCCC config_type=start_24 pbc="F F F"
C       -1.89685345      -0.18775312      -0.16482473
C       -0.64213587      -0.21697368       0.70162138
C        0.64297446       0.10655818      -0.09124754
C        1.91341864       0.06353487       0.82682202
H       -2.75219700      -0.43189038       0.43236949
H       -2.08981307       0.80937843      -0.53291179
H       -1.87135943      -0.91761861      -1.05575105
H       -0.63822867       0.48461591       1.56784728
H       -0.54799208      -1.22932111       1.12211773
H        0.75395947      -0.61030549      -0.85281344
H        0.55136544       1.15758260      -0.61142868
H        2.03010006       0.88737798       1.65324263
H        2.04964179      -0.98775795       1.09874023
H        2.73199373       0.23498070       0.38687298
