14
Properties=species:S:1:pos:R:3 energy=-4305.138647313924 name=nbu_straight smiles=CCCC config_type=start_0 pbc="F F F"
C       -1.84697469      -0.11668084      -0.19102069
C       -0.63927079      -0.20332910       0.71048801
C        0.70200144       0.03410724      -0.06719878
C        1.82269506       0.07304963       0.80882017
H       -2.83936408      -0.27019648       0.34774766
H       -1.97925789       0.86026537      -0.70561547
H       -1.71997552      -1.02696263      -0.77825404
H       -0.91338292       0.47742705       1.50476782
H       -0.46329287      -1.39158316       1.14723179
H        0.70968511      -0.70008025      -0.82501084
H        0.70910855       1.07917284      -0.57083417
H        2.01994846       1.15462522       1.73074607
H        1.93824528      -1.23420425       0.94655024
H        2.50535595       0.18925505       0.54556989
14
Properties=species:S:1:pos:R:3 energy=-4305.138647313924 name=nbu_straight smiles=CCCC config_type=start_1 pbc="F F F"
C       -1.90855620      -0.18137379      -0.19903737
C       -0.60862956      -0.25484658       0.69731059
C        0.59075285       0.11904463      -0.09802087
C        1.93109306       0.06866324       0.85215884
H       -2.84739867      -0.35256243       0.43156125
H       -2.10823095       0.75194483      -0.47218317
H       -1.87739342      -0.84585519      -1.29966637
H       -0.32705236       0.41464929       1.55044847
H       -0.50487244      -1.53201112       1.09641161
H        0.69521628      -0.54205989      -0.65035435
H        0.46659382       1.20072533      -0.74821310
H        1.83382837       0.99759839       1.67260279
H        2.09223443      -0.76128203       1.54348332
H        2.94612306       0.23169644       0.32171526
14
Properties=species:S:1:pos:R:3 energy=-4305.138647313924 name=nbu_straight smiles=CCCC config_type=start_2 pbc="F F F"
C       -1.87664492      -0.25058715      -0.17109732
C       -0.71881290      -0.17387015       0.70985649
C        0.65941429       0.17252035      -0.06696935
C        1.95451028      -0.00682073       0.79900022
H       -2.74189450      -0.43549264       0.39345736
H       -2.04683494       0.85747879      -0.90215704
H       -1.83629976      -0.93271094      -0.76698913
H       -0.96316525       0.61417473       1.49038913
H       -0.49031607      -1.48917255       1.14314883
H        0.84037908      -0.36778063      -0.55901549
H        0.44481900       1.34629293      -0.75496372
H        2.12816270       0.97536755       1.71505205
H        2.08209808      -1.01111956       1.01856571
H        2.78839900       0.12840907       0.44946592
14
Properties=species:S:1:pos:R:3 energy=-4305.138647313924 name=nbu_straight smiles=CCCC config_type=start_3 pbc="F F F"
C       -1.90850729      -0.24163951      -0.18847311
C       -0.60620541      -0.26198322       0.67350962
C        0.62614236       0.11990446      -0.03896866
C        1.91895463       0.11617750       0.82791660
H       -2.78277241      -0.44848046       0.34525697
H       -1.96720375       0.81822239      -0.52726847
H       -1.81552294      -0.88643182      -1.12672253
H       -0.72431443       0.46258516       1.55856503
H       -0.71788269      -1.27540278       1.20696052
H        0.88280996      -0.52855252      -0.89458481
H        0.42835570       1.15777518      -0.57090848
H        1.65346028       0.61704690       1.61726614
H        2.04727234      -0.52921060       1.57233819
H        3.05877927       0.40173968       0.00763349
14
Properties=species:S:1:pos:R:3 energy=-4305.138647313924 name=nbu_straight smiles=CCCC config_type=start_4 pbc="F F F"
C       -1.88225282      -0.18756465      -0.18676724
C       -0.61672054      -0.17096137       0.68998769
C        0.65603166       0.05544365      -0.06349888
C        1.88239629       0.05153798       0.84477053
H       -2.73950922      -0.30889646       0.39431746
H       -1.89630888       0.89362397      -0.70242561
H       -1.79803090      -0.89252299      -0.92163636
H       -0.77934265       0.61788594       1.53601251
H       -0.53005434      -1.42142968       1.19623214
H        0.69920327      -0.59439836      -0.63527603
H        0.47247213       1.12318596      -0.75967972
H        1.74634193       0.79920533       1.56738473
H        1.98009875      -0.96704343       1.19341974
H        2.80023682       0.34956550       0.19513478
14
Properties=species:S:1:pos:R:3 energy=-4305.138647313924 name=nbu_straight smiles=CCCC config_type=start_5 pbc="F F F"
C       -1.83441002      -0.19653648      -0.21297650
C       -0.68460406      -0.21756271       0.67509944
C        0.67040241       0.12725638      -0.03431584
C        1.91106979       0.05241515       0.81736925
H       -2.84139556      -0.46031889       0.35116894
H       -2.07384257       0.73929050      -0.82988560
H       -1.81662565      -0.86011570      -0.75336647
H       -0.98396238       0.43757073       1.48769479
H       -0.44677207      -1.53583416       1.08276710
H        0.89893071      -0.36400017      -0.44467158
H        0.41910659       1.23665227      -0.64067662
H        1.69511428       0.88706623       1.67044051
H        2.03268161      -0.98268711       1.31962735
H        2.79790069       0.29794680       0.28883041
14
Properties=species:S:1:pos:R:3 energy=-4305.138647313924 name=nbu_straight smiles=CCCC config_type=start_6 pbc="F F F"
C       -1.88626988      -0.16262689      -0.16705263
C       -0.63992027      -0.22233314       0.66413961
C        0.65594953       0.07715129      -0.03625225
C        1.90001125       0.06750329       0.80616213
H       -2.84278108      -0.38506040       0.39592946
H       -1.74848057       0.95618663      -0.97628772
H       -1.72863122      -1.04287301      -0.70623835
H       -0.93291258       0.62281478       1.48097259
H       -0.40699166      -1.40332097       1.19960100
H        0.72664166      -0.60908796      -0.64900882
H        0.47346232       1.13777340      -0.59722806
H        1.53919937       0.63365397       1.61815165
H        2.06319827      -0.80171525       1.50925205
H        2.92827486       0.35701509      -0.00347048
14
Properties=species:S:1:pos:R:3 energy=-4305.138647313924 name=nbu_straight smiles=CCCC config_type=start_7 pbc="F F F"
C       -1.91705925      -0.16233218      -0.14162141
C       -0.56627822      -0.17448525       0.67609531
C        0.58535830       0.05956345      -0.11122686
C        1.91410880       0.02615850       0.86516393
H       -2.75974633      -0.36874884       0.45668525
H       -2.25218455       0.75888481      -0.44933124
H       -1.84110686      -0.72216711      -1.37037038
H       -0.39146347       0.45661965       1.55900227
H       -0.64674077      -1.31561572       1.14501659
H        0.77141893      -0.54535345      -0.72029865
H        0.48484785       1.19248752      -0.75686525
H        1.88117933       0.56153760       1.65411174
H        2.03119854      -0.73256889       1.41677101
H        2.95490372       0.30829681       0.08198194
14
Properties=species:S:1:pos:R:3 energy=-4305.138647313924 name=nbu_straight smiles=CCCC config_type=start_8 pbc="F F F"
C       -1.82731395      -0.11727454      -0.17152045
C       -0.61648294      -0.17300336       0.73117075
C        0.68342000      -0.00214200      -0.06742851
C        1.81058345       0.06376122       0.77137637
H       -2.77150400      -0.21033300       0.40966488
H       -2.07890886       0.84115167      -0.42619869
H       -1.80529960      -0.67890041      -0.94155069
H       -0.55375635       0.43946691       1.59046715
H       -0.67611751      -0.70441451       1.18462678
H        0.74166428      -0.98312344      -1.44144336
H        0.75003501       0.68242759      -0.08028240
H        1.79461283       0.96421766       1.64638803
H        2.01787480      -1.34056313       1.08279688
H        2.40780959       0.31421993       0.28883567
14
Properties=species:S:1:pos:R:3 energy=-4305.138647313924 name=nbu_straight smiles=CCCC config_type=start_9 pbc="F F F"
C       -1.84072188      -0.17057922      -0.21029648
C       -0.62739955      -0.19579245       0.70047352
C        0.61269160       0.08323055      -0.05426542
C        1.87604375       0.05492391       0.83920648
H       -2.73337298      -0.42534544       0.35831893
H       -2.22755973       0.70803977      -0.41805723
H       -1.86859907      -0.73721292      -1.07763089
H       -0.59049629       0.36009988       1.59655438
H       -0.53836316      -1.25390099       1.19192710
H        0.83164196      -0.63967402      -1.00134542
H        0.55516357       1.15005658      -0.66371136
H        1.99938200       0.90339150       1.69907634
H        2.04381841      -1.03441207       1.16753968
H        2.70738331       0.28936075       0.32289706
14
Properties=species:S:1:pos:R:3 energy=-4305.138647313924 name=nbu_straight smiles=CCCC config_type=start_10 pbc="F F F"
C       -1.86877506      -0.19998101      -0.14623748
C       -0.70153086      -0.22508856       0.69957997
C        0.68007192       0.15409756      -0.06373189
C        1.92333936       0.02864924       0.78488814
H       -2.73564943      -0.41794729       0.44258331
H       -2.11227393       0.79004084      -0.62371461
H       -1.91682656      -0.86077937      -1.07211584
H       -0.77758475       0.49772001       1.51764042
H       -0.57252928      -0.89589585       1.17505846
H        0.80460254      -0.62110562      -1.06066298
H        0.39902607       1.06770500      -0.23063316
H        1.81272485       0.62869134       1.60063454
H        2.14688904      -0.94315490       1.31361264
H        2.98211848       0.24275488       0.12042289
14
Properties=species:S:1:pos:R:3 energy=-4305.138647313924 name=nbu_straight smiles=CCCC config_type=start_11 pbc="F F F"
C       -1.88505074      -0.19221992      -0.21342717
C       -0.68819526      -0.22533651       0.70585321
C        0.65426367       0.17011614      -0.03587591
C        1.95949486       0.00651842       0.79729389
H       -2.75262695      -0.46979646       0.31656971
H       -2.23933561       0.77873373      -0.46623496
H       -1.95470066      -0.78787714      -1.06713682
H       -0.80106688       0.43619888       1.50613556
H       -0.59126635      -0.84264637       1.22773845
H        0.80142612      -0.57786118      -1.03389443
H        0.53616593       1.05282818      -0.29779067
H        1.76634443       0.66943629       1.60415611
H        2.18254487      -1.04106591       1.52671995
H        2.99462443       0.25331351       0.11267162
14
Properties=species:S:1:pos:R:3 energy=-4305.138647313924 name=nbu_straight smiles=CCCC config_type=start_12 pbc="F F F"
C       -1.88877924      -0.17456833      -0.17480211
C       -0.65633609      -0.23125643       0.70082371
C        0.63759615       0.10634144      -0.06115004
C        1.93697865       0.04915229       0.82257465
H       -2.80007146      -0.46826020       0.39695090
H       -2.01441205       0.87969759      -0.69175120
H       -1.85969732      -0.93711560      -0.99653131
H       -0.76228891       0.53091864       1.56978021
H       -0.52143898      -1.14958585       1.21730979
H        0.84145672      -0.57271433      -0.94475570
H        0.53219147       1.12467180      -0.52905438
H        1.79633058       0.74741903       1.59529499
H        2.06008962      -0.92973737       1.20548907
H        2.80191867       0.35875196       0.20574281
14
Properties=species:S:1:pos:R:3 energy=-4305.138647313924 name=nbu_straight smiles=CCCC config_type=start_13 pbc="F F F"
C       -1.87748859      -0.17795186      -0.15872537
C       -0.60053773      -0.19028342       0.73243054
C        0.61974226       0.08378190      -0.10683373
C        1.91364868       0.05564249       0.79938707
H       -2.80832158      -0.41883389       0.42474917
H       -2.01346429       0.83092165      -0.61251921
H       -1.88590543      -0.83976149      -0.99363770
H       -0.76554375       0.47532666       1.53164425
H       -0.53958296      -1.16487198       1.15577647
H        0.64970890      -0.70704671      -1.02891294
H        0.49529562       1.00727062      -0.33657551
H        2.00089917       0.92798881       1.64094689
H        1.95463173      -0.99169369       1.12042942
H        2.67751423       0.20793949       0.37934175
14
Properties=species:S:1:pos:R:3 energy=-4305.138647313924 name=nbu_straight smiles=CCCC config_type=start_14 pbc="F F F"
C       -1.92494120      -0.22247665      -0.16894203
C       -0.62815289      -0.28052041       0.70244931
C        0.61552832       0.13107421      -0.06603484
C        1.95045395       0.10179331       0.80605782
H       -2.77370814      -0.48287291       0.38442252
H       -1.93751098       0.75452188      -0.77299916
H       -1.81884888      -0.99256493      -0.83769912
H       -0.92814818       0.51647321       1.50343452
H       -0.63656758      -1.17625260       1.12035676
H        0.76552589      -0.44137067      -0.80052773
H        0.51985824       1.20082897      -0.59860382
H        2.08165399       0.96876694       1.67514678
H        2.10918134      -0.80269321       1.21621177
H        2.89030064       0.27544320       0.30460807
14
Properties=species:S:1:pos:R:3 energy=-4305.138647313924 name=nbu_straight smiles=CCCC config_type=start_15 pbc="F F F"
C       -1.86925534      -0.16474661      -0.25578771
C       -0.66798146      -0.18537899       0.72313033
C        0.71444604       0.08812365      -0.04248787
C        1.86537243       0.04156135       0.80896730
H       -2.85645970      -0.36328594       0.37017097
H       -1.88084643       0.93639105      -0.73020069
H       -1.78638390      -0.98106645      -0.79550800
H       -0.98255438       0.56796531       1.51736321
H       -0.37299592      -1.22225303       1.17860635
H        0.67643870      -0.70746723      -0.75130748
H        0.53962934       1.06895418      -0.39444449
H        1.80677287       0.77729622       1.62568590
H        2.00322365      -1.06300843       1.37187991
H        2.77119843       0.21454157       0.27521596
14
Properties=species:S:1:pos:R:3 energy=-4305.138647313924 name=nbu_straight smiles=CCCC config_type=start_16 pbc="F F F"
C       -1.88688284      -0.20424210      -0.14144816
C       -0.67354947      -0.27330196       0.69451787
C        0.64944276       0.13972628      -0.05553964
C        1.93419414       0.07563041       0.79075905
H       -2.74187899      -0.36538433       0.49021168
H       -1.96870538       0.78167661      -0.82037586
H       -1.81055767      -0.95861018      -0.77933102
H       -1.09676931       0.67803870       1.45962997
H       -0.60469796      -1.09266171       1.16126151
H        0.87094847      -0.51294530      -0.90309408
H        0.49201544       1.15205003      -0.59900080
H        2.15430790       0.81199511       1.65997007
H        2.01467516      -0.95221176       0.96169615
H        2.83959280       0.18356444       0.38763648
14
Properties=species:S:1:pos:R:3 energy=-4305.138647313924 name=nbu_straight smiles=CCCC config_type=start_17 pbc="F F F"
C       -1.89256947      -0.18577575      -0.18465129
C       -0.61242762      -0.21563170       0.71457009
C        0.62416661       0.09753689      -0.07719827
C        1.90600659       0.08680809       0.81911948
H       -2.77209752      -0.43867888       0.38448308
H       -2.13154300       0.76870832      -0.47329687
H       -1.85681945      -0.83685722      -1.16865644
H       -0.52333773       0.42156860       1.56372121
H       -0.64610302      -1.00995640       1.11651814
H        0.70609065      -0.71990504      -0.98774128
H        0.49664024       1.01112672      -0.40565793
H        1.80220344       0.69085659       1.61065043
H        2.10138990      -0.99319851       1.37203338
H        2.94827843       0.29342248       0.20245898
14
Properties=species:S:1:pos:R:3 energy=-4305.138647313924 name=nbu_straight smiles=CCCC config_type=start_18 pbc="F F F"
C       -1.90433731      -0.22846909      -0.21734962
C       -0.64090099      -0.23861466       0.74206282
C        0.59729413       0.12954362      -0.06663408
C        1.96690210       0.10588806       0.83003863
H       -2.87727562      -0.51008505       0.34987956
H       -1.82451002       0.80660863      -0.74334479
H       -1.77133726      -1.10938876      -0.80704142
H       -1.07720802       0.37785734       1.49034397
H       -0.57694898      -1.32166757       1.12579033
H        0.84172449      -0.45002885      -0.84978854
H        0.44446510       1.20505189      -0.68713983
H        2.25914313       1.14485677       1.70159970
H        2.02422836      -0.98521703       0.85907412
H        2.75721232       0.20399861       0.58142747
14
Properties=species:S:1:pos:R:3 energy=-4305.138647313924 name=nbu_straight smiles=CCCC config_type=start_19 pbc="F F F"
C       -1.90063129      -0.18816465      -0.18265870
C       -0.64015167      -0.25284583       0.66746226
C        0.65452799       0.10872044      -0.06301296
C        1.91084713       0.11048322       0.83963183
H       -2.72910929      -0.53784165       0.39456296
H       -2.12618363       0.80309741      -0.45641628
H       -1.86999798      -0.93350808      -1.11151965
H       -0.57509924       0.38355180       1.55427493
H       -0.46734769      -1.18115415       1.18531055
H        0.80390196      -0.54174891      -0.85369313
H        0.48817227       1.16005687      -0.48433793
H        1.59308478       0.59165183       1.55533032
H        2.02702383      -0.84287379       1.46755952
H        2.98736490       0.34291765       0.08730174
14
Properties=species:S:1:pos:R:3 energy=-4305.138647313924 name=nbu_straight smiles=CCCC config_type=start_20 pbc="F F F"
C       -1.90020481      -0.20705130      -0.24219548
C       -0.65305730      -0.20602158       0.70710534
C        0.67243329       0.10498933      -0.03543821
C        1.90828858       0.05199186       0.82861551
H       -2.84539810      -0.50987082       0.40103680
H       -1.86028853       0.86783160      -0.72057008
H       -1.78400053      -0.89185793      -0.80950029
H       -0.91334959       0.41971530       1.45469377
H       -0.40330340      -1.18522556       1.18734732
H        0.79057132      -0.52729442      -0.77590701
H        0.46959621       1.13787396      -0.50165042
H        1.71577742       0.71065521       1.60542741
H        2.02777912      -0.74478484       1.40460536
H        2.90077295       0.37595833       0.13265129
14
Properties=species:S:1:pos:R:3 energy=-4305.138647313924 name=nbu_straight smiles=CCCC config_type=start_21 pbc="F F F"
C       -1.91906617      -0.16680240      -0.12734008
C       -0.60920519      -0.15820045       0.73076941
C        0.61662217       0.06243905      -0.10705275
C        1.90484821       0.06576642       0.78496568
H       -2.74316186      -0.36124954       0.49856509
H       -1.89312497       0.89790355      -0.75858277
H       -1.75209795      -1.11074642      -1.04231365
H       -0.70848280       0.60962615       1.57876466
H       -0.54921557      -1.27195986       1.15205741
H        0.68433072      -0.73577470      -1.00206630
H        0.59349330       1.03977570      -0.52608135
H        2.10952964       0.82199481       1.67759393
H        1.99618105      -1.15026894       1.11063728
H        2.76874096       0.20680562       0.41281601
14
Properties=species:S:1:pos:R:3 energy=-4305.138647313924 name=nbu_straight smiles=CCCC config_type=start_22 pbc="F F F"
C       -1.88645310      -0.20651393      -0.14245908
C       -0.65288208      -0.19015051       0.67946463
C        0.73834848       0.11084299      -0.08963470
C        1.85422661       0.03926915       0.84374589
H       -2.73982034      -0.52005357       0.39679583
H       -2.43239091       0.67479770      -0.37269250
H       -1.99351163      -0.53281994      -1.33452376
H       -0.34369612       0.42783811       1.51874034
H       -0.39523205      -1.36418599       1.14026555
H        0.82494772      -0.53453756      -0.76457648
H        0.58781844       1.23364433      -0.72786078
H        1.66338342       0.69900099       1.67501473
H        1.94316327      -0.91952846       1.30092290
H        2.67523807       0.37496454       0.15253747
14
Properties=species:S:1:pos:R:3 energy=-4305.138647313924 name=nbu_straight smiles=CCCC config_type=start_23 pbc="F F F"
C       -1.86856568      -0.21117097      -0.17338969
C       -0.72022778      -0.28431555       0.69692614
C        0.65794739       0.19223627      -0.04841762
C        1.96464419       0.03822125       0.79760596
H       -2.74512840      -0.42770429       0.37954462
H       -2.05578414       0.69648279      -0.74850291
H       -1.86014645      -0.93234657      -0.86577972
H       -0.98411921       0.53733633       1.56939693
H       -0.56545629      -0.97537957       1.16330834
H        0.78195825      -0.52272475      -0.94861806
H        0.43209957       1.16467721      -0.39500125
H        2.03312087       0.86304559       1.65835447
H        2.07481130      -0.88687663       1.13059915
H        2.91114407       0.24250554       0.26077680
14
Properties=species:S:1:pos:R:3 energy=-4305.138647313924 name=nbu_straight smiles=CCCC config_type=start_24 pbc="F F F"
C       -1.94170796      -0.19847444      -0.22896888
C       -0.63612940      -0.29546639       0.71997353
C        0.62477035       0.15729438      -0.08372963
C        1.95715413       0.09480945       0.82623271
H       -2.74344755      -0.53275238       0.33146033
H       -2.18148758       0.66691859      -0.29284711
H       -1.86971981      -0.90329837      -1.11805588
H       -0.46093414       0.26627141       1.56555921
H       -0.53622386      -0.69687898       1.23121498
H        0.75768425      -0.62951239      -1.16810229
H        0.43699389       0.95457131      -0.14029965
H        1.69660358       0.76827046       1.66790923
H        2.06825670      -0.68238848       1.37960302
H        3.20812573       0.27047802       0.21499957
