14
Properties=species:S:1:pos:R:3 energy=-4305.117114564319 name=nbu_bent smiles=CCCC config_type=start_0 pbc="F F F"
C       -1.53901936       0.36180221      -0.01764741
C       -0.56331707      -0.48522124      -0.70012402
C        0.74544653      -0.73397369       0.18759656
C        1.58569508       0.45289674       0.42984700
H       -1.12292049       1.48771391       0.24211266
H       -1.71082563      -0.08331541       0.65960475
H       -2.38203832       0.37828464      -0.15535304
H       -0.69721266       0.02348687      -1.73380832
H       -0.86003749      -1.20143276      -0.85308370
H        0.46908702      -1.34032642       1.04441690
H        1.22007905      -1.53803355      -0.15454814
H        2.30322185       0.03477745       0.90470241
H        0.99976061       1.37594670       1.24004865
H        2.06637244       1.06642460      -0.65281062
14
Properties=species:S:1:pos:R:3 energy=-4305.117114564319 name=nbu_bent smiles=CCCC config_type=start_1 pbc="F F F"
C       -1.53305267       0.38231568       0.07297945
C       -0.55808614      -0.44992995      -0.70927529
C        0.72808000      -0.74696583       0.13139723
C        1.59399047       0.41628542       0.44668840
H       -1.14198185       1.42975785       0.29438587
H       -1.90260853      -0.05770654       0.92052038
H       -2.50571290       0.65908442      -0.57010220
H       -0.29781240       0.00108696      -1.59234678
H       -1.06181757      -1.35796417      -0.96189319
H        0.40455199      -1.31114717       0.94928458
H        1.34646033      -1.45922867      -0.41622199
H        2.58264888       0.11859242       0.97601752
H        1.01831169       1.11983055       0.90558921
H        1.81735060       0.98717773      -0.46557147
14
Properties=species:S:1:pos:R:3 energy=-4305.117114564319 name=nbu_bent smiles=CCCC config_type=start_2 pbc="F F F"
C       -1.54309674       0.38081665      -0.02343119
C       -0.54440165      -0.47985909      -0.69855033
C        0.72736674      -0.73781356       0.15650048
C        1.59335535       0.46190901       0.45495475
H       -1.14085223       1.30878417       0.21419209
H       -1.97730657      -0.05765763       1.05416171
H       -2.51375672       0.48768768      -0.58015703
H       -0.30460302      -0.32552788      -1.68347058
H       -0.97043515      -1.31698983      -0.89341964
H        0.44965748      -1.26135280       1.09921780
H        1.19775644      -1.44080708      -0.37603483
H        2.37779783       0.24674199       0.99905386
H        1.07461884       1.24952098       1.30376139
H        2.03916883       0.96098486      -0.47436636
14
Properties=species:S:1:pos:R:3 energy=-4305.117114564319 name=nbu_bent smiles=CCCC config_type=start_3 pbc="F F F"
C       -1.55986618       0.37521052       0.05723406
C       -0.54466204      -0.49074106      -0.68982771
C        0.72238648      -0.72768095       0.12831834
C        1.59870790       0.45710049       0.44957437
H       -1.14377405       1.25694969       0.24398071
H       -1.92240184      -0.13707828       1.03641616
H       -2.53896807       0.70311980      -0.52996661
H       -0.21879867      -0.05246457      -1.66613476
H       -1.09388779      -1.41472544      -0.99946095
H        0.48387175      -1.33642503       0.86466342
H        1.33222776      -1.42863615      -0.44088868
H        2.72112879       0.36455590       1.02945610
H        1.01249671       1.09289637       0.82974347
H        1.79851887       0.93603443      -0.36977092
14
Properties=species:S:1:pos:R:3 energy=-4305.117114564319 name=nbu_bent smiles=CCCC config_type=start_4 pbc="F F F"
C       -1.59751561       0.41487580       0.01837116
C       -0.53614019      -0.47818733      -0.69099398
C        0.78233979      -0.75793093       0.12016110
C        1.56647835       0.45539953       0.47081798
H       -1.17836626       1.35300531       0.25006202
H       -1.86967155      -0.02293728       0.98261849
H       -2.49474166       0.52932893      -0.61672511
H       -0.29526984      -0.12778781      -1.66285644
H       -0.95885025      -1.44142683      -0.98157011
H        0.45060668      -1.33365319       1.08020824
H        1.37446366      -1.50959343      -0.39602702
H        2.66817920       0.17340245       1.04783797
H        0.96809229       1.12923985       1.05858396
H        1.78284052       0.99335645      -0.44322202
14
Properties=species:S:1:pos:R:3 energy=-4305.117114564319 name=nbu_bent smiles=CCCC config_type=start_5 pbc="F F F"
C       -1.54144028       0.39568197       0.08074897
C       -0.57904837      -0.43921789      -0.72564917
C        0.76122942      -0.77232280       0.14916573
C        1.57065541       0.43712980       0.42715267
H       -1.13540967       1.37110848       0.28038579
H       -1.80887428      -0.00970028       0.86279864
H       -2.45494813       0.50456510      -0.49985645
H       -0.26175564       0.12218123      -1.64579779
H       -1.10865487      -1.60554983      -1.02112627
H        0.54379738      -1.19060894       1.13991780
H        1.34977040      -1.43090946      -0.52703841
H        2.49390991       0.16162669       0.98466862
H        1.04802060       0.97037441       1.08662476
H        1.82654027       1.00385507      -0.49755010
14
Properties=species:S:1:pos:R:3 energy=-4305.117114564319 name=nbu_bent smiles=CCCC config_type=start_6 pbc="F F F"
C       -1.57714497       0.35771183      -0.00553526
C       -0.56859458      -0.46826786      -0.69871551
C        0.77588705      -0.72236947       0.13812416
C        1.58835027       0.45798623       0.48154483
H       -1.14875429       1.22124032       0.23195039
H       -1.96585979      -0.02941255       1.10329083
H       -2.52412723       0.53571149      -0.61488825
H       -0.25094804      -0.04378524      -1.69328696
H       -0.86717542      -1.65378426      -0.98395354
H        0.51071767      -1.18972231       1.20766732
H        1.30187389      -1.33304930      -0.54065849
H        2.45794343       0.18339353       1.00979824
H        1.07209524       1.12171818       1.04569312
H        1.82172980       1.03950822      -0.41186105
14
Properties=species:S:1:pos:R:3 energy=-4305.117114564319 name=nbu_bent smiles=CCCC config_type=start_7 pbc="F F F"
C       -1.53261515       0.38175828       0.00794153
C       -0.50491627      -0.44918944      -0.69825837
C        0.74928403      -0.78576405       0.12013111
C        1.52200772       0.49336050       0.48162392
H       -1.11463257       1.40209285       0.21434217
H       -2.03073377      -0.09281628       1.13384649
H       -2.51041812       0.64891241      -0.73525119
H        0.01465913      -0.25720953      -1.64683028
H       -0.98592494      -1.62391758      -1.00619548
H        0.33469547      -1.31879956       1.21582593
H        1.40347644      -1.47790889      -0.55871741
H        2.41040580       0.22061459       1.05091080
H        0.91471618       1.17934620       1.05138295
H        1.78903668       0.99118788      -0.31804296
14
Properties=species:S:1:pos:R:3 energy=-4305.117114564319 name=nbu_bent smiles=CCCC config_type=start_8 pbc="F F F"
C       -1.56777033       0.34773439       0.10233585
C       -0.56571477      -0.45674310      -0.67879726
C        0.76034759      -0.73029725       0.12582085
C        1.59500340       0.44062019       0.40197295
H       -1.26796028       1.33687326       0.28919285
H       -1.80682154      -0.02800496       0.83418099
H       -2.48841421       0.45129045      -0.51317387
H       -0.38750277       0.19647946      -1.62431744
H       -1.17414418      -1.31284748      -0.97310642
H        0.56299408      -1.31310982       0.89284732
H        1.44420859      -1.54501882      -0.46736686
H        2.75346719       0.29775669       1.00555403
H        0.96778644       1.10871443       0.86518371
H        1.76403097       0.94200551      -0.38291913
14
Properties=species:S:1:pos:R:3 energy=-4305.117114564319 name=nbu_bent smiles=CCCC config_type=start_9 pbc="F F F"
C       -1.57678335       0.40576047      -0.00459742
C       -0.52218019      -0.51146009      -0.72274536
C        0.73455589      -0.79523676       0.16188247
C        1.57478720       0.51089533       0.47105780
H       -1.27428584       1.46862417       0.18116372
H       -1.64098077       0.02699214       0.83225869
H       -2.31520031       0.25936619      -0.30885335
H       -0.53481996      -0.05505978      -1.70151040
H       -0.93178526      -1.63422881      -0.95910783
H        0.55222561      -1.17923984       1.22328099
H        1.19409902      -1.38811542      -0.49494441
H        2.40581416       0.24377725       0.95808626
H        1.09242713       1.28899298       1.16937069
H        1.95739765       1.00096930      -0.42910743
14
Properties=species:S:1:pos:R:3 energy=-4305.117114564319 name=nbu_bent smiles=CCCC config_type=start_10 pbc="F F F"
C       -1.57028041       0.38951855      -0.00486038
C       -0.55069663      -0.53993337      -0.71610374
C        0.78083121      -0.75843788       0.15471769
C        1.55455762       0.50083494       0.48440159
H       -1.07679934       1.26496251       0.23607019
H       -1.88028828      -0.07814548       0.91885736
H       -2.48040629       0.55542093      -0.55856352
H       -0.25736597       0.03252828      -1.64842239
H       -0.95644303      -1.54964349      -0.97337644
H        0.48929013      -1.16880547       1.25958483
H        1.26611143      -1.32139664      -0.51559999
H        2.41001933       0.06060131       1.00769386
H        1.04879031       1.36785227       1.16128454
H        1.89344733       1.08264165      -0.56655090
14
Properties=species:S:1:pos:R:3 energy=-4305.117114564319 name=nbu_bent smiles=CCCC config_type=start_11 pbc="F F F"
C       -1.65208916       0.38791090      -0.02681348
C       -0.48492450      -0.52737456      -0.64405595
C        0.71411653      -0.74265304       0.10769884
C        1.60613376       0.51218398       0.46116683
H       -1.19509017       1.33845651       0.16575940
H       -1.70947089      -0.06958988       1.02701405
H       -2.42915505       0.44608840      -0.31523514
H       -0.37795246      -0.17362323      -1.61477494
H       -1.01931800      -1.17267890      -0.95937903
H        0.33553501      -1.44531181       0.80114274
H        1.46865128      -1.64851442      -0.20564729
H        2.85296454       0.50540283       1.04798387
H        1.02196205       1.14512899       0.73631747
H        1.87968448       0.86564567      -0.12115361
14
Properties=species:S:1:pos:R:3 energy=-4305.117114564319 name=nbu_bent smiles=CCCC config_type=start_12 pbc="F F F"
C       -1.59617158       0.40083673       0.02439483
C       -0.52014127      -0.52833300      -0.72320176
C        0.72703762      -0.76583194       0.16593015
C        1.60164980       0.50542898       0.45691832
H       -1.30612205       1.44920480       0.20677358
H       -1.66076118      -0.00483188       0.86538745
H       -2.37455883       0.13427492      -0.41579116
H       -0.47783363      -0.04306183      -1.70214791
H       -1.06072267      -1.46056436      -0.95401982
H        0.42158919      -1.22425154       1.05335523
H        1.37414850      -1.41259650      -0.49303461
H        2.43424579       0.18096898       0.93864234
H        1.05301039       1.35946277       1.20694708
H        2.07804391       1.02754973      -0.45522587
14
Properties=species:S:1:pos:R:3 energy=-4305.117114564319 name=nbu_bent smiles=CCCC config_type=start_13 pbc="F F F"
C       -1.56632217       0.36670735       0.03902023
C       -0.57219227      -0.52079153      -0.71611346
C        0.77148356      -0.73074318       0.17058296
C        1.59329423       0.48283278       0.44092444
H       -1.23528137       1.47760238       0.23576511
H       -1.58994668      -0.04063308       0.61232780
H       -2.39466237       0.26079842      -0.22023620
H       -0.74862181       0.22309136      -1.70695662
H       -1.00638479      -1.53064388      -0.92832206
H        0.41246393      -1.20385408       1.15374004
H        1.44913089      -1.36844824      -0.50293486
H        2.60281523       0.07415699       0.97347597
H        0.96221463       1.27676125       0.93829601
H        1.86415109       1.00556495      -0.42781911
14
Properties=species:S:1:pos:R:3 energy=-4305.117114564319 name=nbu_bent smiles=CCCC config_type=start_14 pbc="F F F"
C       -1.55907708       0.36799426      -0.00487740
C       -0.55223904      -0.47891517      -0.70100965
C        0.75004130      -0.71434575       0.13622691
C        1.58187724       0.44614198       0.48274185
H       -1.06644692       1.29958901       0.17776098
H       -2.19578617      -0.20012492       1.18703647
H       -2.59583988       0.71619424      -0.76121723
H       -0.06992696      -0.19461657      -1.67192608
H       -0.90188579      -1.37003286      -0.96680140
H        0.47517342      -1.16053933       1.12010443
H        1.30060346      -1.46413931      -0.40632711
H        2.42316430       0.05608135       1.00225496
H        1.01231806       1.24914759       1.22344691
H        2.00064777       0.96949029      -0.52271311
14
Properties=species:S:1:pos:R:3 energy=-4305.117114564319 name=nbu_bent smiles=CCCC config_type=start_15 pbc="F F F"
C       -1.56224334       0.42320586       0.06544580
C       -0.50048819      -0.48139026      -0.67460443
C        0.72534513      -0.76401660       0.10371231
C        1.56046341       0.44108574       0.43790369
H       -1.11470635       1.46773768       0.32906524
H       -2.12368443      -0.19620791       1.11813239
H       -2.60961148       0.71252962      -0.93805400
H        0.03574003      -0.00600103      -1.65209488
H       -1.00341247      -1.27438566      -0.96693771
H        0.40981070      -1.43508431       0.74516589
H        1.37953329      -1.61187039      -0.22471477
H        2.49280981       0.10790120       1.01966808
H        0.99195415       1.18184455       1.18030715
H        1.89399127       0.97758684      -0.45958147
14
Properties=species:S:1:pos:R:3 energy=-4305.117114564319 name=nbu_bent smiles=CCCC config_type=start_16 pbc="F F F"
C       -1.58131079       0.40479606       0.03435689
C       -0.49656120      -0.44079759      -0.66385259
C        0.77671896      -0.82247218       0.10998922
C        1.53450291       0.48290169       0.43488881
H       -1.18390604       1.45267566       0.25551077
H       -1.87251904       0.04131636       1.01934585
H       -2.44138552       0.57949944      -0.58480640
H       -0.29657867      -0.01782593      -1.61190330
H       -1.05109012      -1.39428143      -0.99618753
H        0.48844843      -1.39963904       0.96547307
H        1.46185300      -1.61428297      -0.38068618
H        2.62073263       0.38234620       1.03966994
H        0.94051606       0.92449857       0.87481525
H        1.56445120       0.90430326      -0.22662383
14
Properties=species:S:1:pos:R:3 energy=-4305.117114564319 name=nbu_bent smiles=CCCC config_type=start_17 pbc="F F F"
C       -1.59266262       0.37692611       0.07379669
C       -0.47558439      -0.51883364      -0.67359517
C        0.70814753      -0.77146502       0.09455141
C        1.58799998       0.52589716       0.43343213
H       -1.35709361       1.48598484       0.31944592
H       -1.99471188      -0.17313988       1.13203695
H       -2.46925323       0.49214590      -0.81997885
H        0.03770552      -0.18813886      -1.61666303
H       -1.26399757      -1.02841647      -0.99097707
H        0.42302715      -1.35775763       0.64429465
H        1.45952506      -1.77298617      -0.11789643
H        2.44443167       0.27605081       0.98029642
H        1.06670810       1.22514568       1.12036810
H        1.94873164       1.04058885      -0.44891625
14
Properties=species:S:1:pos:R:3 energy=-4305.117114564319 name=nbu_bent smiles=CCCC config_type=start_18 pbc="F F F"
C       -1.57876724       0.38057939       0.01866722
C       -0.55017838      -0.49683608      -0.69463116
C        0.67772199      -0.74465824       0.11485349
C        1.62719760       0.46453410       0.47936081
H       -1.10311499       1.39955942       0.25675158
H       -1.86130495      -0.09390649       0.99269394
H       -2.47583509       0.47563726      -0.51953557
H       -0.17398409      -0.05930218      -1.66363640
H       -0.99466179      -1.39108411      -1.03289899
H        0.46903472      -1.16882979       1.13255314
H        1.33041195      -1.40236827      -0.49968654
H        2.80299994       0.22430943       1.08659622
H        1.04427242       1.15098137       0.88600128
H        1.87641526       0.97198971      -0.31859844
14
Properties=species:S:1:pos:R:3 energy=-4305.117114564319 name=nbu_bent smiles=CCCC config_type=start_19 pbc="F F F"
C       -1.54550605       0.39787385       0.00716442
C       -0.56575717      -0.48877549      -0.70366755
C        0.74772690      -0.74430395       0.14001662
C        1.57167344       0.44454412       0.45107146
H       -1.24594857       1.38444183       0.23279723
H       -1.86346404       0.01383373       1.02560804
H       -2.42758852       0.38292741      -0.34616064
H       -0.41983368       0.04258827      -1.62315602
H       -0.93525810      -1.18202921      -0.88655606
H        0.49354527      -1.35821993       0.95164312
H        1.45332074      -1.59986698      -0.26652946
H        2.63487379       0.15646449       0.99818435
H        1.00374217       1.21465611       0.98795835
H        1.83785559       0.98353180      -0.47153581
14
Properties=species:S:1:pos:R:3 energy=-4305.117114564319 name=nbu_bent smiles=CCCC config_type=start_20 pbc="F F F"
C       -1.58509285       0.37050562       0.01102584
C       -0.48294414      -0.53504353      -0.67052826
C        0.70837175      -0.77508272       0.10283954
C        1.59587851       0.53032483       0.45088285
H       -1.31697161       1.46897662       0.20937628
H       -1.71977709      -0.00543270       1.02926685
H       -2.40973007       0.40203360      -0.44197176
H       -0.25908840      -0.07295888      -1.61153650
H       -1.08173762      -1.17711229      -0.90410720
H        0.30907381      -1.45863100       0.80788438
H        1.23235309      -1.67369229      -0.14294286
H        2.62564978       0.43990373       1.01684607
H        1.02105875       1.24759572       1.09688148
H        1.79572464       1.08939324      -0.45295350
14
Properties=species:S:1:pos:R:3 energy=-4305.117114564319 name=nbu_bent smiles=CCCC config_type=start_21 pbc="F F F"
C       -1.54969944       0.39194198       0.02769808
C       -0.57349835      -0.48892508      -0.69857812
C        0.76091709      -0.75197451       0.17600158
C        1.57183495       0.44605015       0.42788089
H       -1.17630488       1.34141765       0.23891927
H       -1.71429961      -0.08812049       0.67940678
H       -2.46756215       0.40485260      -0.31927439
H       -0.57570876       0.13627229      -1.65491116
H       -0.96257931      -1.44667969      -0.94300268
H        0.63060552      -1.22712353       1.07177008
H        1.42701964      -1.45182560      -0.46382251
H        2.56856524       0.24709562       1.00089861
H        1.01085289       1.23824237       1.05365387
H        1.77410702       1.03083379      -0.51940078
14
Properties=species:S:1:pos:R:3 energy=-4305.117114564319 name=nbu_bent smiles=CCCC config_type=start_22 pbc="F F F"
C       -1.58036151       0.38509767       0.04315317
C       -0.48353002      -0.48551614      -0.70385517
C        0.67368630      -0.76833637       0.13374231
C        1.58857559       0.48217808       0.48921726
H       -1.28812166       1.39966965       0.27158519
H       -1.84214373      -0.08962732       0.91681919
H       -2.44758715       0.56763081      -0.57796778
H       -0.09515112       0.04342324      -1.64491826
H       -1.20725976      -1.58476266      -0.99112114
H        0.48016110      -1.29104569       0.95988957
H        1.44091506      -1.45843061      -0.57143556
H        2.60158392       0.05810459       0.99825417
H        1.00601632       1.29552828       0.97496796
H        1.99895585       1.04964711      -0.54049760
14
Properties=species:S:1:pos:R:3 energy=-4305.117114564319 name=nbu_bent smiles=CCCC config_type=start_23 pbc="F F F"
C       -1.57266057       0.40297483      -0.02609183
C       -0.54849706      -0.50971869      -0.63333743
C        0.74712908      -0.75917603       0.11562471
C        1.58220851       0.44049786       0.45708396
H       -1.13322132       1.43427215       0.15405126
H       -2.05209848      -0.13185891       1.15220309
H       -2.55267528       0.72209944      -0.60961960
H       -0.17125884      -0.15069473      -1.59620354
H       -0.93509645      -0.86665849      -0.87523071
H        0.53814498      -1.32860083       0.65349260
H        1.34331236      -1.66251277      -0.07123893
H        2.68997642       0.44780283       1.05354741
H        0.96563096       1.04002154       0.81970826
H        1.83738100       0.94772289      -0.30073193
14
Properties=species:S:1:pos:R:3 energy=-4305.117114564319 name=nbu_bent smiles=CCCC config_type=start_24 pbc="F F F"
C       -1.53882572       0.40092750       0.04239851
C       -0.48826567      -0.45509792      -0.66746591
C        0.73536996      -0.80439024       0.08332659
C        1.50448250       0.48008577       0.47156391
H       -1.12266650       1.45801101       0.30979617
H       -2.25582043      -0.23553373       1.30387780
H       -2.61374683       0.73038123      -1.00769137
H        0.31576158      -0.13953772      -1.58825820
H       -0.99641654      -1.37796668      -1.03121958
H        0.43534919      -1.36981184       0.88652650
H        1.44046402      -1.56962831      -0.42257775
H        2.61131764       0.35315307       1.03953412
H        0.91127805       1.07745444       1.00062856
H        1.74945087       0.96623653      -0.30809588
