14
Properties=species:S:1:pos:R:3 energy=-4305.170793189098 smiles=CCCC name=tbu config_type=start_0 pbc="F F F"
C        0.03528154       0.06473502      -0.45690900
C        0.45282494       1.33865771       0.30478481
C       -1.45715509      -0.20707770      -0.20856870
C        0.90482881      -1.11291751      -0.02936183
H        0.16076197       0.22067579      -1.56978120
H       -0.18538659       2.19183778      -0.06098259
H        1.49757497       1.63066880       0.08304150
H        0.30269998       1.17655772       1.40375243
H       -1.64866215      -0.03311578       0.89027605
H       -2.17205657       0.46180457      -0.84971710
H       -1.70215332      -1.31306927      -0.41810493
H        0.83953952      -1.35384555       1.05035793
H        1.97640397      -0.81189994      -0.22932805
H        0.67605576      -2.04742041      -0.58613365
14
Properties=species:S:1:pos:R:3 energy=-4305.170793189098 smiles=CCCC name=tbu config_type=start_1 pbc="F F F"
C        0.04026008       0.04411006      -0.45939239
C        0.43974007       1.33651057       0.29497265
C       -1.46845828      -0.22392300      -0.21787598
C        0.92071079      -1.09851731      -0.00988260
H        0.23748259       0.22600074      -1.53354555
H       -0.15414849       2.18715537      -0.10453042
H        1.49466065       1.58872841       0.04067106
H        0.29014329       1.31475448       1.39101510
H       -1.63885509      -0.41731371       0.87036932
H       -2.03501109       0.70128137      -0.47199301
H       -1.91987927      -1.05808631      -0.80622242
H        0.94374833      -1.20419196       1.10188338
H        1.95944846      -0.87950671      -0.32058473
H        0.60931697      -2.03499549      -0.42854209
14
Properties=species:S:1:pos:R:3 energy=-4305.170793189098 smiles=CCCC name=tbu config_type=start_2 pbc="F F F"
C        0.00148769       0.05589804      -0.42370924
C        0.47247904       1.36849196       0.26528526
C       -1.46561953      -0.25137801      -0.20872084
C        0.91418110      -1.09007694      -0.00919094
H        0.08827283       0.22228254      -1.56560988
H       -0.03278203       2.24616053      -0.16894508
H        1.55958169       1.58172820       0.11135240
H        0.34301596       1.29051520       1.33725662
H       -1.66196514      -0.52126022       0.86474559
H       -2.03470562       0.71148642      -0.49568783
H       -1.80782020      -1.09148784      -0.84116348
H        0.71171590      -1.45869555       1.05607733
H        1.99472261      -0.84148973      -0.12893397
H        0.74290222      -2.01022475      -0.61967705
14
Properties=species:S:1:pos:R:3 energy=-4305.170793189098 smiles=CCCC name=tbu config_type=start_3 pbc="F F F"
C        0.03127748       0.06520951      -0.43951146
C        0.44372388       1.35727736       0.28088963
C       -1.44222623      -0.24018539      -0.21150092
C        0.90934575      -1.09692700      -0.03124010
H        0.23982944       0.22815245      -1.51133645
H       -0.09952527       2.16689545      -0.17481191
H        1.55167317       1.54807617       0.20140176
H        0.21029908       1.29302780       1.39845407
H       -1.64807000      -0.43556775       0.86432515
H       -2.08333107       0.60586285      -0.50755096
H       -1.79977756      -1.09302894      -0.76054896
H        0.86234754      -1.18735729       1.09381259
H        1.95956868      -0.97655042      -0.35490442
H        0.47646641      -2.04976572      -0.40084609
14
Properties=species:S:1:pos:R:3 energy=-4305.170793189098 smiles=CCCC name=tbu config_type=start_4 pbc="F F F"
C        0.02131630       0.10078418      -0.44837738
C        0.46567699       1.35894361       0.26987904
C       -1.43545191      -0.25356073      -0.20408901
C        0.88417582      -1.09776651      -0.01174336
H        0.16819805       0.25222345      -1.52695992
H       -0.07549292       2.29348135      -0.06554278
H        1.54575888       1.52727305       0.05893519
H        0.34946473       1.18891620       1.36550236
H       -1.74313525      -0.33163420       0.91421644
H       -2.13468286       0.47030413      -0.63410909
H       -1.74144458      -1.22703890      -0.61697245
H        0.70669305      -1.44734769       1.02281534
H        1.97891074      -0.90593705      -0.11636513
H        0.69138845      -1.99531192      -0.63748734
14
Properties=species:S:1:pos:R:3 energy=-4305.170793189098 smiles=CCCC name=tbu config_type=start_5 pbc="F F F"
C        0.00578995       0.05514478      -0.45045604
C        0.45065282       1.38280757       0.28588274
C       -1.45072970      -0.23424127      -0.20959947
C        0.91716797      -1.11437064      -0.01319715
H        0.20456537       0.16556321      -1.53534313
H       -0.10517697       2.24894852      -0.10249007
H        1.53146483       1.48010862       0.08990476
H        0.29827644       1.26598297       1.40152457
H       -1.65619433      -0.47039270       0.85392441
H       -2.08074618       0.67431725      -0.48530181
H       -1.79958317      -1.08771878      -0.85912474
H        0.85810031      -1.22668609       1.08571175
H        1.99146634      -0.92107399      -0.28352927
H        0.65649095      -2.07645017      -0.48414422
14
Properties=species:S:1:pos:R:3 energy=-4305.170793189098 smiles=CCCC name=tbu config_type=start_6 pbc="F F F"
C        0.01444690       0.07896922      -0.42634191
C        0.45130764       1.37119851       0.26185978
C       -1.44988612      -0.23566288      -0.20966093
C        0.89568807      -1.13633648      -0.01348099
H        0.24429881       0.24528411      -1.49572278
H       -0.17852302       2.25692847      -0.04068936
H        1.50663970       1.63674077       0.00410194
H        0.42084670       1.28267868       1.34522691
H       -1.65081134      -0.32534476       0.88283928
H       -2.06697764       0.59820833      -0.57277735
H       -1.69556001      -1.19754852      -0.68688686
H        0.75645996      -1.48456306       1.01973817
H        1.98440984      -0.83802711      -0.06006453
H        0.71265435      -1.98909449      -0.71173145
14
Properties=species:S:1:pos:R:3 energy=-4305.170793189098 smiles=CCCC name=tbu config_type=start_7 pbc="F F F"
C        0.03876373       0.06565483      -0.44191305
C        0.44172678       1.34772727       0.26818540
C       -1.44115325      -0.23373770      -0.21993061
C        0.90061047      -1.10466743      -0.00561190
H        0.13638771       0.25258608      -1.55070586
H       -0.15460685       2.21688968      -0.01653433
H        1.49363978       1.61443191       0.08605650
H        0.26025205       1.28790158       1.34667923
H       -1.58301402      -0.54139011       0.85399910
H       -2.01509791       0.70830925      -0.40245000
H       -1.84010665      -1.07804019      -0.84734233
H        0.81945147      -1.18743800       1.10800496
H        1.98299333      -0.97651078      -0.32790842
H        0.59531929      -2.07288527      -0.42683417
14
Properties=species:S:1:pos:R:3 energy=-4305.170793189098 smiles=CCCC name=tbu config_type=start_8 pbc="F F F"
C        0.02041171       0.07200157      -0.45282801
C        0.45915127       1.34738276       0.26928812
C       -1.45883086      -0.23910284      -0.19895631
C        0.90256410      -1.10205318      -0.00809247
H        0.26301983       0.27112150      -1.54778908
H       -0.02799531       2.24555006      -0.16415549
H        1.54850246       1.50503703       0.16289831
H        0.17140705       1.27907371       1.34962927
H       -1.64082762      -0.41287947       0.88645276
H       -2.10422351       0.61281334      -0.46471139
H       -1.80892775      -1.14152133      -0.77317844
H        0.84746843      -1.35043706       1.05927181
H        1.97223621      -0.81240216      -0.21079076
H        0.67321986      -2.01139429      -0.57821228
14
Properties=species:S:1:pos:R:3 energy=-4305.170793189098 smiles=CCCC name=tbu config_type=start_9 pbc="F F F"
C        0.02416027       0.08429439      -0.46992205
C        0.45536410       1.35683307       0.28062155
C       -1.47371189      -0.23927345      -0.21150379
C        0.92355797      -1.12466616       0.00054853
H        0.15764698       0.25969144      -1.57079176
H       -0.08346533       2.29882522      -0.01663771
H        1.50004441       1.57207515       0.03347927
H        0.32432160       1.28757707       1.38252315
H       -1.67655055      -0.42838003       0.86106301
H       -2.08693202       0.61371640      -0.48190649
H       -1.78550868      -1.14704102      -0.73278055
H        0.81959291      -1.27761488       1.08388621
H        1.99954585      -0.94185240      -0.15121520
H        0.65256260      -2.03978738      -0.57295653
14
Properties=species:S:1:pos:R:3 energy=-4305.170793189098 smiles=CCCC name=tbu config_type=start_10 pbc="F F F"
C        0.02434748       0.06058028      -0.46662654
C        0.46835538       1.37719277       0.27953381
C       -1.46588043      -0.24110219      -0.22371177
C        0.90689435      -1.11392493       0.01821007
H        0.20014867       0.21109156      -1.53837021
H       -0.15721458       2.28618494      -0.02129873
H        1.55156561       1.62506670       0.14044775
H        0.26726265       1.25486757       1.36704449
H       -1.55343528      -0.65496278       0.81860969
H       -2.11071745       0.66182741      -0.35511844
H       -1.89340306      -1.04447660      -0.95424137
H        0.93361671      -1.13550942       1.11001757
H        1.95652714      -0.96162963      -0.44093418
H        0.57511778      -2.11096919      -0.38271221
14
Properties=species:S:1:pos:R:3 energy=-4305.170793189098 smiles=CCCC name=tbu config_type=start_11 pbc="F F F"
C        0.03768596       0.06467561      -0.44187650
C        0.45982635       1.35738853       0.27331516
C       -1.47825670      -0.22732114      -0.22252561
C        0.93096694      -1.11953257      -0.00580769
H        0.09705530       0.23957981      -1.54369426
H       -0.17078514       2.21319134      -0.04063201
H        1.48052256       1.67947866       0.08598488
H        0.37881700       1.25448576       1.38425999
H       -1.68155407      -0.49589792       0.82177029
H       -2.13588125       0.64487401      -0.47925522
H       -1.80202411      -1.10422579      -0.82454318
H        0.85362564      -1.22995968       1.11383544
H        2.01053324      -0.93909331      -0.26283178
H        0.54237465      -2.04157736      -0.46022181
14
Properties=species:S:1:pos:R:3 energy=-4305.170793189098 smiles=CCCC name=tbu config_type=start_12 pbc="F F F"
C        0.03232481       0.06021582      -0.42215346
C        0.40923506       1.36094825       0.26821941
C       -1.44436785      -0.19924909      -0.19905408
C        0.93414855      -1.14231915      -0.03029482
H        0.27507940       0.13549141      -1.47625829
H       -0.18798528       2.21066115      -0.10135595
H        1.47266781       1.67033219       0.08597591
H        0.32578238       1.29984635       1.35853521
H       -1.66949077      -0.25117269       0.87021633
H       -2.10129854       0.64477095      -0.57528673
H       -1.73921468      -1.14762784      -0.72512774
H        0.78930012      -1.40829888       1.00954847
H        1.98172542      -0.96206598      -0.19851710
H        0.65119727      -2.02366568      -0.61530670
14
Properties=species:S:1:pos:R:3 energy=-4305.170793189098 smiles=CCCC name=tbu config_type=start_13 pbc="F F F"
C        0.04479735       0.05767923      -0.42218427
C        0.43796413       1.39342012       0.26836230
C       -1.43995747      -0.23128018      -0.20423149
C        0.90083707      -1.13784502      -0.01642596
H        0.15676697       0.13292031      -1.55470933
H       -0.09540250       2.26115645      -0.12815350
H        1.50823866       1.62820905       0.12459023
H        0.17584466       1.35969528       1.34418579
H       -1.63187851      -0.51852394       0.82440201
H       -2.04375757       0.66591230      -0.44546382
H       -1.78366815      -1.09106314      -0.79623831
H        0.81198042      -1.36784352       1.06219873
H        1.95563246      -0.92496633      -0.26266879
H        0.59762621      -2.00504670      -0.64073939
14
Properties=species:S:1:pos:R:3 energy=-4305.170793189098 smiles=CCCC name=tbu config_type=start_14 pbc="F F F"
C        0.04053966       0.05255466      -0.41601716
C        0.45133507       1.35939030       0.27490035
C       -1.44422897      -0.21109033      -0.20683502
C        0.90105272      -1.12459647      -0.02601607
H        0.20120120       0.26469414      -1.50401472
H       -0.36421790       2.11598090       0.03024370
H        1.46832879       1.74224876      -0.11530310
H        0.51684571       1.20566963       1.38132640
H       -1.76702371      -0.25584564       0.89043790
H       -2.08745229       0.52883468      -0.74430699
H       -1.68889927      -1.16407618      -0.67829244
H        0.68312226      -1.36291851       1.01878509
H        1.96041520      -0.84531136      -0.15698613
H        0.66823143      -2.02164671      -0.60040597
14
Properties=species:S:1:pos:R:3 energy=-4305.170793189098 smiles=CCCC name=tbu config_type=start_15 pbc="F F F"
C        0.03075750       0.06315372      -0.41906784
C        0.42213613       1.33237975       0.26397440
C       -1.49039501      -0.19785238      -0.21873959
C        0.95704087      -1.12031490      -0.00016650
H        0.18729006       0.16328716      -1.54756257
H       -0.13812413       2.22745500      -0.11435180
H        1.51121718       1.57363971       0.03565362
H        0.31140301       1.29806739       1.37535369
H       -1.69113489      -0.55840649       0.83829239
H       -2.06968453       0.74593758      -0.39744240
H       -1.81151198      -0.99004158      -0.96665420
H        1.00541275      -1.22902717       1.11810066
H        1.99772264      -0.94668800      -0.32522316
H        0.63582606      -2.08870759      -0.49437676
14
Properties=species:S:1:pos:R:3 energy=-4305.170793189098 smiles=CCCC name=tbu config_type=start_16 pbc="F F F"
C        0.05697072       0.06887934      -0.43331760
C        0.44070661       1.35531623       0.27827728
C       -1.47112590      -0.21099351      -0.21059917
C        0.92746875      -1.14306432      -0.03053496
H        0.16015571       0.31512388      -1.50986221
H       -0.22184195       2.18215506      -0.14549943
H        1.47986892       1.67680042       0.14705093
H        0.28655784       1.28558595       1.36906028
H       -1.72786588      -0.28134926       0.88265481
H       -2.15599686       0.59380302      -0.58828371
H       -1.75878705      -1.18516811      -0.69119946
H        0.88892313      -1.28663666       1.08390453
H        1.96418778      -0.93211260      -0.26102110
H        0.61231754      -2.08729262      -0.50063933
14
Properties=species:S:1:pos:R:3 energy=-4305.170793189098 smiles=CCCC name=tbu config_type=start_17 pbc="F F F"
C        0.01491608       0.04471247      -0.43706296
C        0.45958455       1.32910049       0.27290149
C       -1.44142008      -0.24157803      -0.21266220
C        0.89540300      -1.06470659      -0.02221606
H        0.17753778       0.17490008      -1.54871332
H       -0.11247561       2.23265765      -0.05607033
H        1.55911590       1.57621228       0.12226951
H        0.31204201       1.19869267       1.34528260
H       -1.65205955      -0.43421389       0.85619062
H       -2.04417480       0.66496357      -0.48661181
H       -1.75252657      -1.07516823      -0.81019994
H        0.79291320      -1.14493101       1.10794778
H        1.96487098      -0.85363842      -0.23351345
H        0.58660581      -2.02706297      -0.47635452
14
Properties=species:S:1:pos:R:3 energy=-4305.170793189098 smiles=CCCC name=tbu config_type=start_18 pbc="F F F"
C        0.02909151       0.07183144      -0.43511944
C        0.44187708       1.35382658       0.27927032
C       -1.43480057      -0.21776213      -0.18938531
C        0.89319772      -1.11474495      -0.04358618
H        0.17597317       0.28175904      -1.52056594
H       -0.12235065       2.20099978      -0.16080178
H        1.53783857       1.56543963       0.08152826
H        0.26672414       1.30117417       1.38120714
H       -1.63789102      -0.24921587       0.87658647
H       -2.09968512       0.48889952      -0.70404007
H       -1.70099776      -1.26011795      -0.58180108
H        0.71954517      -1.41722355       1.02553340
H        1.98702360      -0.90200227      -0.04389601
H        0.69523246      -2.00319770      -0.65535490
14
Properties=species:S:1:pos:R:3 energy=-4305.170793189098 smiles=CCCC name=tbu config_type=start_19 pbc="F F F"
C        0.05807003       0.06045520      -0.45059755
C        0.42710060       1.38283206       0.29022325
C       -1.46745181      -0.22685148      -0.21030016
C        0.91045244      -1.13809604      -0.01663519
H        0.21001288       0.25331132      -1.54326731
H       -0.16428062       2.23246933      -0.08970911
H        1.47443454       1.55954402       0.04707296
H        0.32755449       1.32820477       1.39561945
H       -1.67516045      -0.37171157       0.88167433
H       -2.04013783       0.66353540      -0.56140283
H       -1.82654973      -1.13995500      -0.71221077
H        0.90019471      -1.33747132       1.06222329
H        1.98281004      -0.91712895      -0.28782881
H        0.64665855      -2.08742495      -0.51169787
14
Properties=species:S:1:pos:R:3 energy=-4305.170793189098 smiles=CCCC name=tbu config_type=start_20 pbc="F F F"
C        0.01579967       0.04898318      -0.43291298
C        0.46543869       1.36686221       0.26860901
C       -1.48448029      -0.22559506      -0.22485091
C        0.94155698      -1.11744022      -0.00396836
H        0.08912253       0.19756289      -1.53382636
H       -0.21609234       2.22202726       0.00678116
H        1.49970428       1.65340940      -0.01398902
H        0.48717397       1.26460745       1.39945634
H       -1.77611658      -0.43170699       0.81622160
H       -2.02832263       0.69726389      -0.46908288
H       -1.86810197      -1.09016593      -0.80650615
H        0.74333200      -1.36377557       1.07452080
H        2.01419890      -0.83087984      -0.15743190
H        0.76959319      -2.06893246      -0.56657162
14
Properties=species:S:1:pos:R:3 energy=-4305.170793189098 smiles=CCCC name=tbu config_type=start_21 pbc="F F F"
C        0.02047308       0.08778622      -0.44111016
C        0.48600212       1.36041544       0.25335522
C       -1.47798322      -0.26842139      -0.21881494
C        0.90360618      -1.09242063       0.01076779
H        0.13297599       0.19632774      -1.57496464
H       -0.13829685       2.27166414       0.08396976
H        1.52915085       1.58930517      -0.04450708
H        0.45879819       1.19334736       1.36010569
H       -1.57355624      -0.60860837       0.86414389
H       -2.07250510       0.66383455      -0.42754215
H       -1.82702846      -1.06589525      -0.91068213
H        0.61358429      -1.31617870       1.08442901
H        1.97606198      -0.85588333      -0.10578602
H        0.68942209      -1.99158439      -0.54775243
14
Properties=species:S:1:pos:R:3 energy=-4305.170793189098 smiles=CCCC name=tbu config_type=start_22 pbc="F F F"
C        0.05246205       0.06275175      -0.43641786
C        0.39893992       1.36847634       0.26067626
C       -1.45443616      -0.21285051      -0.18757236
C        0.93468149      -1.12637579      -0.03232987
H        0.20383585       0.20214411      -1.52347572
H       -0.00454597       2.31016031      -0.21587490
H        1.55744703       1.42533751       0.28007380
H        0.11014071       1.26614523       1.35235500
H       -1.62298412      -0.32673745       0.91937951
H       -2.04943383       0.65490189      -0.55456815
H       -1.73089874      -1.18336240      -0.64959787
H        0.78709849      -1.38092552       1.06066363
H        1.98839335      -0.93275063      -0.22372834
H        0.55547213      -2.01423467      -0.66553863
14
Properties=species:S:1:pos:R:3 energy=-4305.170793189098 smiles=CCCC name=tbu config_type=start_23 pbc="F F F"
C        0.02946058       0.04430065      -0.46840743
C        0.43587415       1.33830746       0.26540683
C       -1.46305147      -0.19429382      -0.19253242
C        0.92581270      -1.11504914       0.01770191
H        0.18332270       0.10504821      -1.54148809
H       -0.24989448       2.18446461      -0.02006047
H        1.48665599       1.69701883      -0.02176313
H        0.40707654       1.21345865       1.33858251
H       -1.66866383      -0.46773300       0.85743470
H       -2.02798973       0.71817886      -0.42993191
H       -1.83462022      -1.02300084      -0.87234189
H        0.74228008      -1.42683886       1.04987228
H        1.98714524      -0.78917864      -0.11084623
H        0.81098491      -1.96727820      -0.68220441
14
Properties=species:S:1:pos:R:3 energy=-4305.170793189098 smiles=CCCC name=tbu config_type=start_24 pbc="F F F"
C        0.01171963       0.07613434      -0.44497828
C        0.47774968       1.37700627       0.24902804
C       -1.45461335      -0.23403675      -0.18836041
C        0.88468467      -1.12958911      -0.01646856
H        0.17444460       0.19963359      -1.52998450
H       -0.15656603       2.24285173      -0.02835326
H        1.56693915       1.64575909       0.00572670
H        0.40709645       1.28949900       1.36622294
H       -1.67195596      -0.41871518       0.89710688
H       -2.14595008       0.58440391      -0.52101075
H       -1.68813270      -1.21088102      -0.68182658
H        0.48836281      -1.56649906       0.99123823
H        1.98667368      -0.75360270       0.19000478
H        0.97746485      -1.96225335      -0.84862019
