14
Properties=species:S:1:pos:R:3 energy=-4305.170793189098 smiles=CCCC name=tbu config_type=start_0 pbc="F F F"
C        0.02519863       0.07278758      -0.42801851
C        0.46523177       1.35590047       0.27929565
C       -1.46960342      -0.23160788      -0.22488916
C        0.91201998      -1.11244554      -0.01420205
H        0.12983733       0.23473374      -1.50909871
H       -0.15782611       2.20878095      -0.03833214
H        1.52427815       1.60664236       0.03357321
H        0.40055902       1.25417997       1.39045632
H       -1.67918455      -0.32149318       0.87653709
H       -2.14529256       0.55572808      -0.64596628
H       -1.77144529      -1.20855722      -0.69514798
H        0.83169466      -1.31523070       1.07592077
H        1.98947734      -0.88016428      -0.23215830
H        0.65762375      -2.02649420      -0.56929311
14
Properties=species:S:1:pos:R:3 energy=-4305.170793189098 smiles=CCCC name=tbu config_type=start_1 pbc="F F F"
C        0.03885457       0.08236505      -0.42727186
C        0.44914488       1.36569100       0.27292199
C       -1.45420554      -0.23157384      -0.20495509
C        0.90495168      -1.12510580      -0.03088648
H        0.16953906       0.23716789      -1.52817317
H       -0.15946130       2.22435765      -0.07318301
H        1.50514177       1.55120666       0.06503470
H        0.33119688       1.28303179       1.36799735
H       -1.63898388      -0.24724966       0.90601909
H       -2.12836709       0.53250910      -0.67260122
H       -1.74186601      -1.24961142      -0.61371240
H        0.69834578      -1.40442260       1.02894070
H        2.00985192      -0.88920071      -0.09960052
H        0.66415521      -2.01009714      -0.66598725
14
Properties=species:S:1:pos:R:3 energy=-4305.170793189098 smiles=CCCC name=tbu config_type=start_2 pbc="F F F"
C        0.01831557       0.07727156      -0.43044013
C        0.46747515       1.36125640       0.25749536
C       -1.47434001      -0.23510238      -0.21600051
C        0.91112422      -1.11147262      -0.00103145
H        0.21054280       0.21431957      -1.50775938
H       -0.17296665       2.22609462      -0.04875003
H        1.52488848       1.59916298       0.03755721
H        0.41799677       1.24642166       1.35786140
H       -1.62535661      -0.44380669       0.86035360
H       -2.12087372       0.60454284      -0.51300623
H       -1.80510092      -1.12644626      -0.75247619
H        0.75699950      -1.44313910       1.04858768
H        1.96874553      -0.84531401      -0.09862473
H        0.74729409      -2.01057341      -0.67170614
14
Properties=species:S:1:pos:R:3 energy=-4305.170793189098 smiles=CCCC name=tbu config_type=start_3 pbc="F F F"
C        0.02982912       0.07220556      -0.43485436
C        0.45825567       1.35904907       0.27551650
C       -1.45841467      -0.23367246      -0.20703065
C        0.90682737      -1.11407386      -0.01972654
H        0.17554123       0.24456147      -1.51367863
H       -0.12582234       2.21896082      -0.12711570
H        1.52419614       1.57047249       0.10165718
H        0.28933670       1.31999978       1.37797788
H       -1.64775974      -0.43017162       0.85205460
H       -2.12410138       0.58255201      -0.54747271
H       -1.75962875      -1.13714011      -0.77177486
H        0.79750413      -1.30153001       1.06164997
H        1.96682914      -0.89442795      -0.23145073
H        0.64030675      -2.05139161      -0.53592121
14
Properties=species:S:1:pos:R:3 energy=-4305.170793189098 smiles=CCCC name=tbu config_type=start_4 pbc="F F F"
C        0.02438011       0.05450543      -0.45754086
C        0.44939133       1.33489688       0.27149432
C       -1.47073277      -0.21362753      -0.20791873
C        0.92674273      -1.09972500      -0.00483155
H        0.16703141       0.21613900      -1.57084218
H       -0.16792925       2.21539335       0.00007693
H        1.51014670       1.58975534       0.08375911
H        0.35509676       1.18591834       1.36608487
H       -1.64087725      -0.33326164       0.87697939
H       -2.07016014       0.64515102      -0.55796684
H       -1.84169864      -1.14136477      -0.72103918
H        0.77266376      -1.30131325       1.08758355
H        1.99576525      -0.82496910      -0.18344368
H        0.73625686      -2.04083040      -0.56389021
14
Properties=species:S:1:pos:R:3 energy=-4305.170793189098 smiles=CCCC name=tbu config_type=start_5 pbc="F F F"
C        0.04141760       0.06981094      -0.43922652
C        0.44616198       1.36612369       0.27348766
C       -1.45691677      -0.23963007      -0.20795959
C        0.90289028      -1.11155503      -0.02619370
H        0.18900645       0.27304373      -1.52706120
H       -0.11262066       2.24325484      -0.06477742
H        1.52878400       1.55744682       0.10757581
H        0.29777467       1.29656663       1.37031135
H       -1.65877458      -0.38051869       0.88644117
H       -2.09897764       0.59460055      -0.56597462
H       -1.75385709      -1.16281050      -0.72394563
H        0.79998505      -1.31903454       1.08289081
H        1.96921389      -0.93712232      -0.22215461
H        0.61093236      -2.05843501      -0.51292809
14
Properties=species:S:1:pos:R:3 energy=-4305.170793189098 smiles=CCCC name=tbu config_type=start_6 pbc="F F F"
C        0.03264858       0.06977177      -0.44425667
C        0.44446730       1.34981754       0.28190231
C       -1.46089680      -0.22397039      -0.20841171
C        0.91424606      -1.10730350      -0.01885924
H        0.15828844       0.23257649      -1.52985514
H       -0.07501803       2.24888257      -0.12417908
H        1.53329755       1.52519762       0.14125281
H        0.23662106       1.26378260       1.36161730
H       -1.63147364      -0.33970819       0.87583900
H       -2.14976139       0.57124846      -0.57911016
H       -1.74919306      -1.17087466      -0.71729229
H        0.87152434      -1.28261486       1.07278987
H        2.00274689      -0.92597769      -0.26321947
H        0.61130433      -2.05803699      -0.52975716
14
Properties=species:S:1:pos:R:3 energy=-4305.170793189098 smiles=CCCC name=tbu config_type=start_7 pbc="F F F"
C        0.03361046       0.06974839      -0.42841596
C        0.46203910       1.36142943       0.27200925
C       -1.45817509      -0.23485167      -0.20708294
C        0.90827101      -1.11407431      -0.02335813
H        0.19588679       0.23227403      -1.50764934
H       -0.15176212       2.20128210      -0.07001972
H        1.50972407       1.64128713       0.08542157
H        0.33353551       1.29670625       1.36637404
H       -1.74951186      -0.36653214       0.86776495
H       -2.11411977       0.56480199      -0.60671169
H       -1.75767317      -1.17916780      -0.71931148
H        0.78074677      -1.33719401       1.04563772
H        1.96670525      -0.88793764      -0.21377997
H        0.61257719      -2.02887617      -0.57280624
14
Properties=species:S:1:pos:R:3 energy=-4305.170793189098 smiles=CCCC name=tbu config_type=start_8 pbc="F F F"
C        0.01755427       0.07577307      -0.44023239
C        0.46920966       1.34084259       0.26548208
C       -1.45815187      -0.23200049      -0.20945226
C        0.90215597      -1.08886712      -0.00452804
H        0.15950677       0.17316869      -1.52986604
H       -0.12851650       2.24874893       0.02011484
H        1.52180151       1.53720412       0.02049228
H        0.35756715       1.20021662       1.34618912
H       -1.67348945      -0.42589762       0.86042277
H       -2.11609097       0.57242467      -0.56861330
H       -1.73507000      -1.16261160      -0.76930818
H        0.77643400      -1.33538755       1.05730082
H        1.97033053      -0.82900222      -0.16076303
H        0.67206986      -2.00291923      -0.57866239
14
Properties=species:S:1:pos:R:3 energy=-4305.170793189098 smiles=CCCC name=tbu config_type=start_9 pbc="F F F"
C        0.03260574       0.06818597      -0.43715105
C        0.46420770       1.35984498       0.26595454
C       -1.45943222      -0.24556498      -0.21330071
C        0.90559530      -1.09580192      -0.01301003
H        0.15649039       0.23103896      -1.52034525
H       -0.09725996       2.25412420      -0.10293126
H        1.53184322       1.55973888       0.12044823
H        0.29767621       1.26123052       1.35255042
H       -1.66185953      -0.56167899       0.85057934
H       -2.09811944       0.62549039      -0.41793604
H       -1.82890038      -1.09011361      -0.85616653
H        0.77985233      -1.23911953       1.09831688
H        1.98490657      -0.92365310      -0.21911288
H        0.59458718      -2.03245115      -0.50354433
14
Properties=species:S:1:pos:R:3 energy=-4305.170793189098 smiles=CCCC name=tbu config_type=start_10 pbc="F F F"
C        0.04155272       0.06425995      -0.43653421
C        0.43428962       1.36560859       0.26193878
C       -1.46096498      -0.21708990      -0.19965102
C        0.92830517      -1.13012630      -0.01456394
H        0.19138594       0.19550178      -1.52278870
H       -0.17766388       2.21611536      -0.05259558
H        1.49320104       1.64052504       0.07182414
H        0.29446533       1.23557308       1.34487710
H       -1.67202218      -0.38668438       0.85784503
H       -2.09189522       0.66382117      -0.51744588
H       -1.79491902      -1.10212659      -0.77193514
H        0.76900232      -1.38509514       1.05528316
H        1.99399827      -0.91436952      -0.17050139
H        0.65110884      -2.03117641      -0.59633652
14
Properties=species:S:1:pos:R:3 energy=-4305.170793189098 smiles=CCCC name=tbu config_type=start_11 pbc="F F F"
C        0.03126483       0.07779370      -0.44451417
C        0.45570933       1.36364310       0.27655710
C       -1.46003744      -0.24047962      -0.21168331
C        0.90821016      -1.10953901      -0.01070186
H        0.11196448       0.21820469      -1.54458288
H       -0.09146546       2.24703259      -0.08506232
H        1.55213485       1.56530058       0.13666081
H        0.26645861       1.25236621       1.34809444
H       -1.63491458      -0.48159498       0.84526257
H       -2.08705982       0.59884585      -0.52432087
H       -1.77962159      -1.13222395      -0.78543376
H        0.85922423      -1.24594011       1.09539587
H        1.99213460      -0.95484399      -0.26665870
H        0.56365129      -2.03941905      -0.50276968
14
Properties=species:S:1:pos:R:3 energy=-4305.170793189098 smiles=CCCC name=tbu config_type=start_12 pbc="F F F"
C        0.01955710       0.06228452      -0.42945501
C        0.46175037       1.34313393       0.27665608
C       -1.46198164      -0.23186654      -0.21319250
C        0.91875249      -1.10469949      -0.02046957
H        0.13492155       0.26091138      -1.49912794
H       -0.14303782       2.19949294      -0.06493648
H        1.49657310       1.59004777       0.04936015
H        0.36137648       1.31276693       1.37830941
H       -1.70391532      -0.31930075       0.86178446
H       -2.08286725       0.60748519      -0.62149716
H       -1.77353664      -1.15204873      -0.72282745
H        0.76981630      -1.30592963       1.05918898
H        1.97007717      -0.85231561      -0.20956791
H        0.68805130      -2.04481210      -0.56036861
14
Properties=species:S:1:pos:R:3 energy=-4305.170793189098 smiles=CCCC name=tbu config_type=start_13 pbc="F F F"
C        0.03870185       0.07665141      -0.45121689
C        0.44122673       1.36371579       0.27379430
C       -1.43170171      -0.23510392      -0.20989278
C        0.89178510      -1.11953667      -0.00877817
H        0.20663180       0.21652164      -1.53631004
H       -0.19643126       2.22672030      -0.03440178
H        1.50651179       1.65581423       0.07419373
H        0.31049612       1.24413289       1.37769152
H       -1.65719952      -0.47934322       0.86153878
H       -2.08067190       0.62490608      -0.48252354
H       -1.74067257      -1.10397157      -0.79247344
H        0.83837822      -1.24372900       1.08977115
H        1.96603710      -0.98730347      -0.30217916
H        0.54130137      -2.05824389      -0.47015820
14
Properties=species:S:1:pos:R:3 energy=-4305.170793189098 smiles=CCCC name=tbu config_type=start_14 pbc="F F F"
C        0.02092369       0.07400122      -0.44116158
C        0.46407147       1.35836011       0.27600347
C       -1.46019486      -0.24067207      -0.20791878
C        0.90548489      -1.10561475      -0.01533407
H        0.16572300       0.26215775      -1.54680711
H       -0.04757923       2.25819361      -0.09795489
H        1.54018334       1.58650033       0.12903633
H        0.30359654       1.25609699       1.35259978
H       -1.65582670      -0.39870940       0.87876114
H       -2.14270002       0.55311885      -0.57823497
H       -1.75247392      -1.18501673      -0.74698295
H        0.79178907      -1.30681502       1.07164755
H        1.97488026      -0.88874080      -0.21754299
H        0.63284281      -2.04556885      -0.55097686
14
Properties=species:S:1:pos:R:3 energy=-4305.170793189098 smiles=CCCC name=tbu config_type=start_15 pbc="F F F"
C        0.02258786       0.06104335      -0.47008239
C        0.45998889       1.34326859       0.28588898
C       -1.46388466      -0.22498941      -0.22019870
C        0.91355040      -1.09215852       0.00111231
H        0.16623595       0.22086430      -1.54973769
H       -0.22654341       2.21797554       0.07393401
H        1.49730483       1.59789597      -0.02880489
H        0.47947072       1.15673228       1.37546524
H       -1.67003927      -0.38574351       0.84603828
H       -2.08999455       0.63225165      -0.55420138
H       -1.78662705      -1.17115155      -0.70394852
H        0.77797739      -1.25980460       1.09396842
H        1.96727421      -0.87116116      -0.19900735
H        0.67171618      -2.05977104      -0.48290813
14
Properties=species:S:1:pos:R:3 energy=-4305.170793189098 smiles=CCCC name=tbu config_type=start_16 pbc="F F F"
C        0.03625689       0.06928933      -0.43226071
C        0.46137620       1.35914079       0.25785796
C       -1.46198701      -0.23235167      -0.20532588
C        0.90427373      -1.10997531      -0.01366826
H        0.18393355       0.23547954      -1.50720613
H       -0.16812612       2.21195217      -0.06071932
H        1.50311410       1.60571096      -0.02001523
H        0.36898348       1.28635302       1.36370807
H       -1.63737091      -0.48602367       0.86711192
H       -2.10526448       0.63508406      -0.46332224
H       -1.81694282      -1.13298987      -0.77595096
H        0.62419666      -1.41897477       1.03749556
H        1.99330631      -0.82947111      -0.02075292
H        0.74969188      -2.01604555      -0.66763362
14
Properties=species:S:1:pos:R:3 energy=-4305.170793189098 smiles=CCCC name=tbu config_type=start_17 pbc="F F F"
C        0.03680224       0.06399384      -0.44222024
C        0.45090774       1.36939239       0.27251932
C       -1.46075775      -0.22832117      -0.19711573
C        0.90833042      -1.12477969      -0.02156045
H        0.16245961       0.21150006      -1.53490101
H       -0.15875502       2.23424661      -0.06576588
H        1.50883273       1.58720171       0.07638549
H        0.34627396       1.26767569       1.36416242
H       -1.66595927      -0.29592418       0.89852437
H       -2.08418650       0.59258640      -0.63274633
H       -1.76092401      -1.20320217      -0.65144694
H        0.67777060      -1.38779216       1.03729779
H        1.99903909      -0.83667792      -0.07863776
H        0.72626511      -2.00962321      -0.71982966
14
Properties=species:S:1:pos:R:3 energy=-4305.170793189098 smiles=CCCC name=tbu config_type=start_18 pbc="F F F"
C        0.02447253       0.07502716      -0.44082583
C        0.46992324       1.35219116       0.28092984
C       -1.47049168      -0.24295182      -0.21385734
C        0.90681956      -1.09432152      -0.01914128
H        0.13606910       0.21933145      -1.52722409
H       -0.10698383       2.22433990      -0.05903703
H        1.54592376       1.55550496       0.08175288
H        0.35036840       1.26336115       1.38215918
H       -1.66819252      -0.38394238       0.87424863
H       -2.13101323       0.54165240      -0.60181143
H       -1.72067387      -1.15730587      -0.75642619
H        0.80454385      -1.26049819       1.09276525
H        1.97536769      -0.90799576      -0.22384998
H        0.61971475      -2.04941718      -0.51555970
14
Properties=species:S:1:pos:R:3 energy=-4305.170793189098 smiles=CCCC name=tbu config_type=start_19 pbc="F F F"
C        0.04336380       0.06113564      -0.44745529
C        0.43588821       1.35583959       0.27831358
C       -1.44297453      -0.21891967      -0.20556839
C        0.91134244      -1.11612813      -0.01357421
H        0.15073046       0.21467841      -1.53064424
H       -0.21293222       2.18995580      -0.04893119
H        1.48864378       1.62505870       0.10402104
H        0.29359197       1.23211022       1.35667519
H       -1.68260743      -0.29610818       0.87872777
H       -2.05162579       0.61390332      -0.60808038
H       -1.79899233      -1.15907252      -0.68644764
H        0.83503424      -1.31094301       1.05945864
H        1.98045427      -0.94333785      -0.26674551
H        0.60145524      -2.02578508      -0.56591447
14
Properties=species:S:1:pos:R:3 energy=-4305.170793189098 smiles=CCCC name=tbu config_type=start_20 pbc="F F F"
C        0.02751702       0.06319791      -0.41774773
C        0.45661980       1.35736711       0.27553348
C       -1.47633486      -0.22920061      -0.21904654
C        0.91695656      -1.10809405      -0.01806566
H        0.18013680       0.20609561      -1.51148982
H       -0.16756114       2.20086429      -0.03838285
H        1.48600196       1.64569728      -0.02679111
H        0.43786653       1.22837594       1.38251527
H       -1.69928756      -0.36035065       0.83921634
H       -2.08737963       0.61479150      -0.61696471
H       -1.74923361      -1.14622667      -0.75899600
H        0.84708567      -1.33707433       1.07631774
H        1.99136163      -0.89487432      -0.20641488
H        0.63705223      -2.03280438      -0.55369309
14
Properties=species:S:1:pos:R:3 energy=-4305.170793189098 smiles=CCCC name=tbu config_type=start_21 pbc="F F F"
C        0.03487367       0.06608229      -0.42138836
C        0.45043754       1.36782069       0.27578611
C       -1.45515607      -0.23736445      -0.21572430
C        0.90854341      -1.11534370      -0.02328633
H        0.18043236       0.21958507      -1.51343351
H       -0.14689463       2.23713755      -0.07455502
H        1.49194925       1.62698913       0.01980320
H        0.38634209       1.30174603       1.37399596
H       -1.67078769      -0.39335016       0.85680366
H       -2.08943412       0.58996692      -0.55968372
H       -1.77891700      -1.15790247      -0.72735893
H        0.73114587      -1.31652347       1.04683778
H        1.99286544      -0.95192289      -0.18278368
H        0.61334630      -2.00639888      -0.59137114
14
Properties=species:S:1:pos:R:3 energy=-4305.170793189098 smiles=CCCC name=tbu config_type=start_22 pbc="F F F"
C        0.02971536       0.05872889      -0.44356729
C        0.44666372       1.34904742       0.27219228
C       -1.45132423      -0.22012461      -0.21186754
C        0.90117471      -1.10306755      -0.01437650
H        0.17569616       0.17477233      -1.54005876
H       -0.15796175       2.21773214      -0.02177411
H        1.51037418       1.62012026       0.11623262
H        0.32336458       1.22097168       1.37510932
H       -1.61990275      -0.35431724       0.88838096
H       -2.09485209       0.61337775      -0.59634862
H       -1.76738465      -1.15766942      -0.70626713
H        0.85487022      -1.30378750       1.05458990
H        1.98964838      -0.88680097      -0.22031164
H        0.64479026      -2.03552314      -0.54623455
14
Properties=species:S:1:pos:R:3 energy=-4305.170793189098 smiles=CCCC name=tbu config_type=start_23 pbc="F F F"
C        0.04558572       0.05550127      -0.43871463
C        0.44225936       1.35476277       0.26557465
C       -1.45262423      -0.22807576      -0.21033628
C        0.90850219      -1.10202903      -0.00800670
H        0.23416926       0.18474551      -1.52407047
H       -0.19663475       2.17418193      -0.06960690
H        1.48782023       1.66171662       0.12190024
H        0.26604903       1.28252803       1.35999151
H       -1.63938802      -0.48856850       0.84186706
H       -2.04921535       0.69439811      -0.41258738
H       -1.83008400      -1.06368003      -0.85942267
H        0.86512014      -1.27051051       1.08991590
H        1.95899653      -0.97551842      -0.31937588
H        0.55339802      -2.03724371      -0.49846045
14
Properties=species:S:1:pos:R:3 energy=-4305.170793189098 smiles=CCCC name=tbu config_type=start_24 pbc="F F F"
C        0.01135768       0.07525298      -0.45694432
C        0.46511061       1.34638248       0.27039787
C       -1.45614521      -0.23330161      -0.20765522
C        0.90747029      -1.09066855      -0.00548121
H        0.15724915       0.17901121      -1.56022028
H       -0.11714874       2.24206972      -0.02433815
H        1.55478899       1.53868779       0.08771626
H        0.33619161       1.19842308       1.37502743
H       -1.64822910      -0.45437633       0.86132257
H       -2.08189285       0.60062594      -0.52307220
H       -1.77098932      -1.14858632      -0.76565355
H        0.77031416      -1.31181361       1.07170186
H        1.95843720      -0.84384132      -0.16819501
H        0.68133230      -2.04699002      -0.52647068
