14
Properties=species:S:1:pos:R:3 energy=-4305.117114564319 name=nbu_bent smiles=CCCC config_type=start_0 pbc="F F F"
C       -1.55883461       0.37692216       0.01835206
C       -0.54696051      -0.48830242      -0.69511749
C        0.74589780      -0.75246276       0.14028028
C        1.57538726       0.46877892       0.45358482
H       -1.17042542       1.40097509       0.24866276
H       -1.85512879      -0.05695345       0.94112825
H       -2.48660617       0.48265526      -0.53518635
H       -0.32325068      -0.00615091      -1.64796498
H       -0.97541608      -1.35560990      -0.94632831
H        0.47189892      -1.26635250       1.04285461
H        1.37474045      -1.49931130      -0.35574929
H        2.51172269       0.16685934       0.98834503
H        1.02178797       1.20315080       1.09551975
H        1.87419257       1.02182949      -0.49747492
14
Properties=species:S:1:pos:R:3 energy=-4305.117114564319 name=nbu_bent smiles=CCCC config_type=start_1 pbc="F F F"
C       -1.54491541       0.38936972       0.03071791
C       -0.52688931      -0.45331568      -0.68651593
C        0.73653163      -0.78073618       0.13453953
C        1.55545597       0.46254912       0.44857444
H       -1.19109523       1.41734617       0.25541701
H       -1.87412964      -0.03699256       1.01708258
H       -2.47160767       0.54282946      -0.60506661
H       -0.21048167       0.02415173      -1.64506167
H       -1.01246765      -1.35655014      -0.96258442
H        0.42825668      -1.37158746       0.94982468
H        1.45329328      -1.56960302      -0.35124620
H        2.45726236       0.16345652       0.99224140
H        1.00844507       1.11130458       1.06115383
H        1.79996672       1.01242271      -0.49963598
14
Properties=species:S:1:pos:R:3 energy=-4305.117114564319 name=nbu_bent smiles=CCCC config_type=start_2 pbc="F F F"
C       -1.56739427       0.37727381       0.01797744
C       -0.53846818      -0.50040461      -0.69227507
C        0.73736274      -0.75332875       0.13286653
C        1.58257781       0.48521468       0.46756887
H       -1.19639141       1.35274822       0.22933384
H       -1.84677520      -0.06630639       0.95164696
H       -2.48020815       0.51800007      -0.60156032
H       -0.23087355       0.00276328      -1.65549482
H       -1.01709401      -1.53269012      -0.98760070
H        0.47628746      -1.22109079       1.14568271
H        1.33754870      -1.42709123      -0.50659506
H        2.53168223       0.22276748       1.00072168
H        1.01580175       1.19946470       1.06312297
H        1.87027701       0.99734808      -0.41319149
14
Properties=species:S:1:pos:R:3 energy=-4305.117114564319 name=nbu_bent smiles=CCCC config_type=start_3 pbc="F F F"
C       -1.55700602       0.38639664       0.01877778
C       -0.52391405      -0.48102637      -0.69729947
C        0.73149004      -0.76312205       0.13085068
C        1.56443441       0.46848554       0.46886367
H       -1.14866657       1.40304798       0.24257879
H       -1.92095414      -0.08649492       1.07193185
H       -2.49948065       0.57039104      -0.72259584
H       -0.12791122      -0.04855192      -1.63740216
H       -0.99671959      -1.45138921      -0.97746841
H        0.41614507      -1.28531893       1.06510075
H        1.36055799      -1.49977406      -0.40121647
H        2.41562183       0.16159796       1.00496432
H        1.01011967       1.24873554       1.16953753
H        1.94029797       1.00974398      -0.53046968
14
Properties=species:S:1:pos:R:3 energy=-4305.117114564319 name=nbu_bent smiles=CCCC config_type=start_4 pbc="F F F"
C       -1.56521656       0.40432882       0.01911716
C       -0.52329141      -0.49427892      -0.69112466
C        0.74158041      -0.77765299       0.13673604
C        1.56401871       0.48645553       0.45904282
H       -1.16798845       1.40160483       0.23018935
H       -1.82634564      -0.06249495       0.94107043
H       -2.46532167       0.48270441      -0.53427564
H       -0.30419170      -0.00860694      -1.64539792
H       -1.00032972      -1.40924415      -0.95670349
H        0.44949292      -1.31158205       1.01442945
H        1.40123211      -1.53934174      -0.37743926
H        2.51718385       0.20775513       0.99470924
H        1.00248191       1.13228902       1.03104271
H        1.81820579       1.03217116      -0.44326071
14
Properties=species:S:1:pos:R:3 energy=-4305.117114564319 name=nbu_bent smiles=CCCC config_type=start_5 pbc="F F F"
C       -1.57436929       0.38253733      -0.00180814
C       -0.51702804      -0.50005595      -0.68986797
C        0.72895665      -0.77431662       0.13847187
C        1.56472095       0.49999404       0.46196578
H       -1.17874454       1.36063019       0.21031021
H       -1.71740798      -0.00460215       0.90570439
H       -2.40709805       0.40864699      -0.46996747
H       -0.34330035       0.00519187      -1.66331181
H       -0.93792945      -1.48169458      -0.95171298
H        0.41168428      -1.27363749       1.15298494
H        1.33182846      -1.49722056      -0.41883852
H        2.48609555       0.23637037       1.00351335
H        1.00941455       1.27985424       1.14527583
H        1.94653690       1.01947239      -0.48088569
14
Properties=species:S:1:pos:R:3 energy=-4305.117114564319 name=nbu_bent smiles=CCCC config_type=start_6 pbc="F F F"
C       -1.56924357       0.38870042       0.02872015
C       -0.51779196      -0.49011624      -0.69375572
C        0.72970117      -0.76734201       0.13796090
C        1.56829540       0.47527676       0.45189146
H       -1.19293272       1.39248689       0.24440973
H       -1.85925012      -0.04478290       0.97639414
H       -2.46525714       0.52556316      -0.58663366
H       -0.24474468      -0.00245441      -1.64129515
H       -1.05361950      -1.35741670      -0.96862671
H        0.44616725      -1.31517216       0.98220954
H        1.42405651      -1.53538168      -0.36272503
H        2.48467696       0.18240065       0.99398221
H        1.02406122       1.21251668       1.12554990
H        1.93423041       1.01433736      -0.52142526
14
Properties=species:S:1:pos:R:3 energy=-4305.117114564319 name=nbu_bent smiles=CCCC config_type=start_7 pbc="F F F"
C       -1.55448605       0.39516944       0.02826525
C       -0.54503580      -0.47653232      -0.69207547
C        0.75755527      -0.75609721       0.13779702
C        1.56888576       0.44702002       0.45286674
H       -1.15647973       1.37839852       0.24019127
H       -2.01966391      -0.12010056       0.99788996
H       -2.51185220       0.63504757      -0.62124673
H       -0.22480609       0.04053873      -1.64847135
H       -1.03134721      -1.34006703      -0.96582257
H        0.47956923      -1.27486873       0.99807863
H        1.43568219      -1.51432167      -0.34954011
H        2.50263406       0.12304267       0.98390496
H        1.02131847       1.09053499       1.09327806
H        1.81203883       1.01759048      -0.51064408
14
Properties=species:S:1:pos:R:3 energy=-4305.117114564319 name=nbu_bent smiles=CCCC config_type=start_8 pbc="F F F"
C       -1.56189210       0.39197652       0.02805883
C       -0.52739424      -0.47734779      -0.70030175
C        0.75014646      -0.77304717       0.13510943
C        1.56218195       0.46806425       0.46409839
H       -1.20154776       1.38925136       0.22638074
H       -1.86217071      -0.07397783       0.93521707
H       -2.47078835       0.52829359      -0.60258186
H       -0.26901473       0.00999900      -1.65748125
H       -0.98743284      -1.55768434      -0.98142974
H        0.46836871      -1.25590967       1.16245084
H        1.34976324      -1.44314863      -0.48857731
H        2.44754598       0.21654348       0.99227592
H        1.02270701       1.17922107       1.12442116
H        1.85604553       1.04273854      -0.49454234
14
Properties=species:S:1:pos:R:3 energy=-4305.117114564319 name=nbu_bent smiles=CCCC config_type=start_9 pbc="F F F"
C       -1.57160479       0.39379786       0.02129065
C       -0.52119354      -0.50002486      -0.68851910
C        0.73837582      -0.77081100       0.11904095
C        1.57195334       0.48948123       0.46993760
H       -1.17264896       1.42136027       0.25775103
H       -1.89987850      -0.07018184       1.00911785
H       -2.48650276       0.49614242      -0.63448183
H       -0.19468924      -0.03274829      -1.64362286
H       -0.98659111      -1.52947845      -0.99046020
H        0.42596283      -1.28107601       1.08274216
H        1.35544331      -1.44896481      -0.48282036
H        2.57849683       0.33250576       1.05759736
H        1.01759252       1.11322066       0.97923037
H        1.78181274       1.00103170      -0.35656041
14
Properties=species:S:1:pos:R:3 energy=-4305.117114564319 name=nbu_bent smiles=CCCC config_type=start_10 pbc="F F F"
C       -1.56256763       0.38852500       0.00595239
C       -0.53744457      -0.49594793      -0.68603098
C        0.73362184      -0.74760144       0.13510843
C        1.57856346       0.46541165       0.46051621
H       -1.13809427       1.42748056       0.22152243
H       -1.95116326      -0.10377246       1.02457360
H       -2.51086913       0.54527576      -0.63324211
H       -0.19333255      -0.05325704      -1.63375925
H       -1.02328133      -1.33450876      -0.95071384
H        0.47927295      -1.27872089       0.98157000
H        1.35628257      -1.55384410      -0.30627956
H        2.51323927       0.19195943       1.00031551
H        1.02952782       1.19043440       1.11128637
H        1.92122243       0.99484249      -0.46287777
14
Properties=species:S:1:pos:R:3 energy=-4305.117114564319 name=nbu_bent smiles=CCCC config_type=start_11 pbc="F F F"
C       -1.57521289       0.39045202       0.03250297
C       -0.50793826      -0.46825269      -0.68601934
C        0.73063781      -0.78802528       0.12064494
C        1.56555163       0.47381795       0.46141831
H       -1.19301584       1.39892849       0.25013368
H       -1.84572674      -0.06099873       0.96718380
H       -2.45536936       0.49360193      -0.62737479
H       -0.21637519       0.03395849      -1.63334823
H       -1.00617917      -1.51441349      -0.99015685
H        0.46407207      -1.27856499       1.08151995
H        1.38434335      -1.46850352      -0.47461967
H        2.51641163       0.24582957       1.01990699
H        0.99106636       1.21241359       1.01994113
H        1.83339244       0.99262101      -0.41579005
14
Properties=species:S:1:pos:R:3 energy=-4305.117114564319 name=nbu_bent smiles=CCCC config_type=start_12 pbc="F F F"
C       -1.57262394       0.40069125       0.01617052
C       -0.51909811      -0.49844057      -0.68304301
C        0.73109286      -0.77668987       0.13316604
C        1.57173953       0.49005661       0.45413353
H       -1.16113377       1.40312940       0.24099872
H       -1.79188255      -0.04968355       0.92708724
H       -2.44024617       0.43014912      -0.53734220
H       -0.28342717       0.00922653      -1.64345816
H       -1.01887514      -1.36968901      -0.94335935
H        0.43540311      -1.34093776       0.98644499
H        1.39397620      -1.55893954      -0.34308818
H        2.51691212       0.21855220       1.00830840
H        1.00859713       1.20113146       1.04882567
H        1.83638898       1.02078239      -0.45019089
14
Properties=species:S:1:pos:R:3 energy=-4305.117114564319 name=nbu_bent smiles=CCCC config_type=start_13 pbc="F F F"
C       -1.57069652       0.38944831      -0.00055918
C       -0.52223241      -0.51608448      -0.69555200
C        0.72869046      -0.76212008       0.13502481
C        1.57630277       0.49569310       0.47202583
H       -1.17532287       1.42826225       0.20036969
H       -1.86594268      -0.06990749       1.03123837
H       -2.47458944       0.47697900      -0.60096692
H       -0.24429519      -0.08493694      -1.65640863
H       -0.97646811      -1.43712985      -0.95789803
H        0.45823290      -1.24978590       1.07291399
H        1.36395284      -1.48660947      -0.39376820
H        2.48091017       0.22353910       1.01941415
H        1.00292216       1.25255450       1.10895258
H        1.91480682       1.01435079      -0.41662430
14
Properties=species:S:1:pos:R:3 energy=-4305.117114564319 name=nbu_bent smiles=CCCC config_type=start_14 pbc="F F F"
C       -1.54194682       0.39767066       0.00847403
C       -0.53740423      -0.48285566      -0.68215572
C        0.76066558      -0.77155759       0.13514430
C        1.54671075       0.47583741       0.45800184
H       -1.18114307       1.38213316       0.23585688
H       -1.95863740      -0.09341763       1.02013046
H       -2.49923732       0.55834369      -0.60161347
H       -0.22509172      -0.07493930      -1.65075069
H       -0.98459317      -1.36454678      -0.96606308
H        0.46585167      -1.31578618       0.99705146
H        1.41836286      -1.54245987      -0.34005428
H        2.50578855       0.26148809       1.01753764
H        0.99488651       1.10773440       1.02590465
H        1.75773423       1.00362864      -0.43222741
14
Properties=species:S:1:pos:R:3 energy=-4305.117114564319 name=nbu_bent smiles=CCCC config_type=start_15 pbc="F F F"
C       -1.55448751       0.38207297       0.01158684
C       -0.53827512      -0.49640430      -0.69319607
C        0.74843140      -0.75509400       0.14672450
C        1.56847132       0.47634981       0.45200217
H       -1.17302701       1.41758887       0.22441258
H       -1.89764159      -0.08308944       0.98983355
H       -2.49324361       0.55286854      -0.58268943
H       -0.24897506      -0.05096270      -1.65662194
H       -1.00498681      -1.36356909      -0.96226798
H        0.48510154      -1.30645699       0.98745278
H        1.35415141      -1.52441942      -0.30159665
H        2.40494466       0.19698179       0.97861383
H        1.01982009       1.19902932       1.16555509
H        1.89417385       1.02927137      -0.50909472
14
Properties=species:S:1:pos:R:3 energy=-4305.117114564319 name=nbu_bent smiles=CCCC config_type=start_16 pbc="F F F"
C       -1.56224048       0.38447005       0.01866193
C       -0.53677907      -0.48464548      -0.68839312
C        0.72943735      -0.75974156       0.13542501
C        1.58417603       0.46470331       0.46185340
H       -1.18071166       1.37590398       0.25351475
H       -1.85386423      -0.06964143       0.93121586
H       -2.45668629       0.47884850      -0.58696812
H       -0.24717484       0.01607177      -1.64405789
H       -1.02269462      -1.40834157      -0.96931031
H        0.44119533      -1.27458819       1.07242295
H        1.37357323      -1.47952527      -0.42611718
H        2.51565750       0.19747485       0.99858529
H        1.00839427       1.22354347       1.07471359
H        1.87645299       1.03321737      -0.49470882
14
Properties=species:S:1:pos:R:3 energy=-4305.117114564319 name=nbu_bent smiles=CCCC config_type=start_17 pbc="F F F"
C       -1.56084239       0.38279378       0.00976365
C       -0.53011942      -0.48906828      -0.69692148
C        0.73741366      -0.76123168       0.13629085
C        1.57265975       0.48099901       0.46557494
H       -1.18430900       1.38217742       0.23686018
H       -1.84306317      -0.04111501       1.00823733
H       -2.46060771       0.51477533      -0.55513383
H       -0.25236407      -0.03878135      -1.63925756
H       -1.00500875      -1.49128363      -0.95913516
H        0.42385370      -1.30381355       1.07200286
H        1.37020026      -1.46656742      -0.44153648
H        2.50761243       0.24258713       1.02174890
H        0.99930282       1.18281128       1.06121793
H        1.84465531       1.00848166      -0.44269060
14
Properties=species:S:1:pos:R:3 energy=-4305.117114564319 name=nbu_bent smiles=CCCC config_type=start_18 pbc="F F F"
C       -1.56175703       0.38955356       0.01293690
C       -0.51724243      -0.49125239      -0.69668171
C        0.72837627      -0.77637643       0.13318720
C        1.56206076       0.48516789       0.46756809
H       -1.13887296       1.44777780       0.25930276
H       -1.86889323      -0.05834306       0.96433044
H       -2.46344480       0.52181569      -0.62080445
H       -0.21811245      -0.00201084      -1.65089381
H       -0.94928002      -1.52157321      -0.98590115
H        0.42823783      -1.25853060       1.15715654
H        1.36341906      -1.47813728      -0.46931409
H        2.44679185       0.20130719       0.99724962
H        0.99666033       1.20685492       1.12829275
H        1.89519203       1.00649770      -0.44463050
14
Properties=species:S:1:pos:R:3 energy=-4305.117114564319 name=nbu_bent smiles=CCCC config_type=start_19 pbc="F F F"
C       -1.57464833       0.38931052       0.00724912
C       -0.51186953      -0.48770621      -0.68546721
C        0.73278465      -0.77770521       0.12448958
C        1.57184728       0.47900326       0.46833880
H       -1.20583345       1.43902533       0.24398259
H       -1.91407992      -0.05000996       1.09023414
H       -2.48410111       0.54182175      -0.68097413
H       -0.16575261      -0.02706213      -1.65658640
H       -0.99183884      -1.36135294      -0.98053736
H        0.44624462      -1.30615026       1.04526674
H        1.38087173      -1.52886210      -0.38736920
H        2.46535820       0.21301866       1.02712683
H        1.01484852       1.17180602       1.13752241
H        1.86627017       1.02297189      -0.47516269
14
Properties=species:S:1:pos:R:3 energy=-4305.117114564319 name=nbu_bent smiles=CCCC config_type=start_20 pbc="F F F"
C       -1.55727581       0.39693108       0.01283536
C       -0.52270890      -0.47290845      -0.69545868
C        0.73836984      -0.78380619       0.13461675
C        1.55746013       0.47852145       0.46799547
H       -1.15160917       1.36623895       0.22017636
H       -1.84580305      -0.03589343       0.93487949
H       -2.43080444       0.47614960      -0.54671767
H       -0.32583415       0.01261790      -1.65018465
H       -0.97209084      -1.61939891      -0.97662532
H        0.46391765      -1.24898657       1.19406164
H        1.35750357      -1.41979341      -0.51903125
H        2.55350396       0.25514559       1.02015871
H        0.98509454       1.14347894       1.04324684
H        1.80542270       0.99756475      -0.42064344
14
Properties=species:S:1:pos:R:3 energy=-4305.117114564319 name=nbu_bent smiles=CCCC config_type=start_21 pbc="F F F"
C       -1.55954478       0.39049107       0.02049606
C       -0.52608067      -0.49139890      -0.69206050
C        0.72999602      -0.76816877       0.12810609
C        1.57119123       0.47498094       0.46688394
H       -1.16770842       1.42156372       0.24310504
H       -1.89130936      -0.08378546       1.02097016
H       -2.49462388       0.53451193      -0.71382776
H       -0.12417597      -0.04245940      -1.64342202
H       -1.00376760      -1.40676818      -0.96454038
H        0.44891551      -1.29759775       1.04143143
H        1.34451913      -1.51516831      -0.36237730
H        2.41776445       0.16382509       0.99457250
H        1.01849524       1.25398295       1.18331430
H        1.89430586       1.05136982      -0.54085270
14
Properties=species:S:1:pos:R:3 energy=-4305.117114564319 name=nbu_bent smiles=CCCC config_type=start_22 pbc="F F F"
C       -1.55983868       0.38175154       0.01638911
C       -0.53401553      -0.49203681      -0.68124547
C        0.72862506      -0.76173794       0.13027516
C        1.58057549       0.48507834       0.46025090
H       -1.18711064       1.38150497       0.23227207
H       -1.79680909      -0.04202193       0.90908436
H       -2.46249774       0.49198896      -0.52681404
H       -0.24866021      -0.02047153      -1.64232680
H       -1.03287581      -1.45118252      -0.96886364
H        0.41405450      -1.29833684       1.05484901
H        1.36437990      -1.49438327      -0.43879466
H        2.58633001       0.26613312       1.02907133
H        1.00279732       1.16803097       0.97064348
H        1.80558690       0.99318829      -0.38734542
14
Properties=species:S:1:pos:R:3 energy=-4305.117114564319 name=nbu_bent smiles=CCCC config_type=start_23 pbc="F F F"
C       -1.56123641       0.39688357       0.01675440
C       -0.53526858      -0.47695716      -0.69754453
C        0.74311982      -0.76975270       0.12983200
C        1.56770506       0.46550073       0.47213676
H       -1.13539918       1.36731547       0.22765980
H       -1.90687692      -0.08076745       1.00965345
H       -2.48094510       0.56629048      -0.61557002
H       -0.21278959       0.00081922      -1.66127617
H       -0.96434807      -1.53347542      -0.98700326
H        0.46450394      -1.23960279       1.16012870
H        1.32626372      -1.45132872      -0.47766542
H        2.51147100       0.19670773       1.01137261
H        1.01887699       1.12880373       1.07625110
H        1.83653947       1.00865285      -0.45839479
14
Properties=species:S:1:pos:R:3 energy=-4305.117114564319 name=nbu_bent smiles=CCCC config_type=start_24 pbc="F F F"
C       -1.56131411       0.39302204       0.02856310
C       -0.53309225      -0.49929953      -0.69409340
C        0.73600583      -0.76343066       0.14495943
C        1.57262635       0.48041764       0.44393927
H       -1.19689673       1.40780375       0.24813235
H       -1.79591015      -0.08760826       0.87670306
H       -2.44128985       0.43308124      -0.52686504
H       -0.32356759       0.02421425      -1.66138411
H       -1.00971829      -1.34656820      -0.95099575
H        0.45666787      -1.31298172       0.99958936
H        1.35854033      -1.52756237      -0.33529222
H        2.45995037       0.15059366       0.96689223
H        1.00285102       1.25219072       1.16142624
H        1.94803748       1.02909579      -0.51915214
