14
Properties=species:S:1:pos:R:3 energy=-4305.117114564319 name=nbu_bent smiles=CCCC config_type=start_0 pbc="F F F"
C       -1.48280803       0.22983041       0.78826777
C       -0.32003289      -0.06969485      -0.52621293
C        1.26616461      -1.02294472       0.12705556
C        1.32242001       0.10921421       0.38366977
H       -0.76966227       1.28269310       0.58812913
H       -1.50798994       0.21068208       1.05811033
H       -2.86716349       0.89153984      -0.57915514
H        0.29676542       0.33754999      -1.63133967
H       -0.98890474      -1.33939376      -0.80996825
H        0.35797689      -1.20523863       1.06508078
H        1.28587960      -1.74941827      -0.19696268
H        1.63425564       0.07279677       1.44934057
H        1.25434009       0.99523532       0.62391234
H        2.26786464       1.28456323      -0.73813716
14
Properties=species:S:1:pos:R:3 energy=-4305.117114564319 name=nbu_bent smiles=CCCC config_type=start_1 pbc="F F F"
C       -1.28007241       0.36035843      -0.14529509
C       -0.69995044      -0.71612941      -0.68328743
C        0.95418094      -0.58385814       0.50238376
C        1.13345001       0.50364214       0.04736171
H       -0.96408066       1.45074955       0.12788894
H       -2.20973412      -0.00769008       1.10616733
H       -2.80457719       0.62060517      -0.63436806
H       -0.43771774       0.09105156      -2.05696920
H       -1.01203113      -1.30676852      -1.20166493
H        0.40957861      -1.63685377       1.03855449
H        1.15524342      -1.60079984      -0.51943243
H        2.57835925       0.00914954       1.22511898
H        0.87876846       0.96149673       0.90018911
H        1.50620114       1.42917468      -0.39900436
14
Properties=species:S:1:pos:R:3 energy=-4305.117114564319 name=nbu_bent smiles=CCCC config_type=start_2 pbc="F F F"
C       -1.75523607       0.63503862       0.64450167
C       -0.26437510      -1.05964197      -0.73569289
C        0.35332753      -0.83096246      -0.18847097
C        1.91053538       0.50111430       0.45415243
H       -0.99133310       1.88606642       0.70146457
H       -1.84417006      -0.07146085       0.90890862
H       -2.57019117       0.62553223      -0.99861215
H       -0.70922988       0.15857278      -1.90116601
H       -1.05631384      -1.34333501      -0.84874079
H        0.43312446      -1.57466925       1.72279482
H        0.99368461      -0.96649826      -0.28465343
H        2.70128417       0.54857185       1.17955376
H        1.32200005       0.93499945       0.97159249
H        1.62361241       0.75840383      -1.01697198
14
Properties=species:S:1:pos:R:3 energy=-4305.117114564319 name=nbu_bent smiles=CCCC config_type=start_3 pbc="F F F"
C       -1.92276726       0.21144486       0.35319270
C       -0.71928365       0.02184659      -1.10926375
C        0.38828499      -0.92604174      -0.26109934
C        1.27014031       0.18836814       0.31692892
H       -1.41603045       0.92554696       0.28237402
H       -2.23844283       0.23971187       0.82469939
H       -2.44732086       0.45793022      -0.57519612
H       -0.14428565       0.52073469      -1.38880095
H       -1.44040402      -1.84663457      -0.63893818
H        0.40224071      -0.82689598       1.36580190
H        1.68009707      -1.83667343      -0.43484793
H        2.18872472       0.84778902       1.63507722
H        1.68033227       0.98956369       1.01008146
H        2.41179836       0.73215458      -0.53823716
14
Properties=species:S:1:pos:R:3 energy=-4305.117114564319 name=nbu_bent smiles=CCCC config_type=start_4 pbc="F F F"
C       -1.11603323       0.39350349      -0.37853421
C       -0.59726656      -0.23570730      -1.12054026
C        0.22750641      -0.65792464      -0.10802868
C        2.06282619       0.56340010       0.95098229
H       -0.87721919       1.71943952       0.18338306
H       -2.19136881       0.51866410       1.42306031
H       -2.31733991       0.26301579      -0.35611035
H       -0.15885460       0.02343397      -1.37312055
H       -0.86324675      -1.90155762      -0.53470541
H        0.32260078      -0.93787880       1.38519927
H        1.12218718      -1.44883496      -0.36750304
H        2.78801235       0.54485758       1.08097453
H        1.03082194       1.46874484       1.11730520
H        2.00991618       0.96819952      -0.00381860
14
Properties=species:S:1:pos:R:3 energy=-4305.117114564319 name=nbu_bent smiles=CCCC config_type=start_5 pbc="F F F"
C       -1.73247778       0.39799769       0.27417335
C       -0.25351646      -0.17073668      -0.64557253
C        0.33596344      -1.11135626      -0.03184278
C        1.87306510       0.34010218       0.56598270
H       -1.27220600       1.73194776      -0.06447891
H       -1.55023938      -0.15047284       0.83801355
H       -2.33339084       0.27825495      -0.48031636
H        0.55299819       0.35272746      -1.60392381
H       -0.68241262      -1.68770498      -0.82070665
H        0.58935495      -1.25106874       1.27968933
H        1.23193465      -1.71243687      -0.43513484
H        2.69191759      -0.04344501       1.18522216
H        1.01822904       0.95510124       0.59498758
H        2.03233765       1.17588809      -0.15724586
14
Properties=species:S:1:pos:R:3 energy=-4305.117114564319 name=nbu_bent smiles=CCCC config_type=start_6 pbc="F F F"
C       -1.58505157       0.43280200       0.11642978
C       -0.40083114      -0.89059997      -1.16961568
C        0.89765596      -0.45761082       0.26128314
C        1.76077211       0.84917235       0.78139325
H       -0.93531519       1.89253060       0.54330102
H       -1.79804195      -0.04150432       1.25170488
H       -2.43258644       0.40915297      -0.70514822
H        0.05911526       0.51091394      -1.10575557
H       -1.18427232      -1.63733696      -1.15774332
H        0.55486385      -1.60933170       1.33171639
H        1.15749512      -1.56741136      -0.67750947
H        3.10407902      -0.06268578       1.01418479
H        0.98439570       0.97272904       1.14685838
H        2.35347139       1.02870518       0.02508062
14
Properties=species:S:1:pos:R:3 energy=-4305.117114564319 name=nbu_bent smiles=CCCC config_type=start_7 pbc="F F F"
C       -1.82954374       0.43010092      -0.29894967
C       -0.29020986      -0.48957192      -0.45995716
C        0.56219022      -0.81156239       0.30111624
C        1.95263651       0.76994545       0.34032815
H       -0.90320984       1.08502841       0.42983892
H       -2.17765124      -0.50444588       0.82019052
H       -2.04983542       0.40663549      -1.03292025
H       -0.18719148      -0.11322108      -1.87511128
H       -0.80373887      -1.59657219      -0.77428040
H        0.31637134      -1.83575270       1.09514072
H        0.93537718      -0.97508138      -0.48404280
H        3.25344220       0.06626473       1.16947525
H        0.81107348       0.54743403       1.52025800
H        1.73809041       1.06336968      -0.34180787
14
Properties=species:S:1:pos:R:3 energy=-4305.117114564319 name=nbu_bent smiles=CCCC config_type=start_8 pbc="F F F"
C       -1.86833409       0.40795975      -0.55880920
C       -0.09420137      -0.59875397      -0.79743756
C        0.39423063      -1.13763780       0.43334703
C        1.88744175       0.79277029       0.34112183
H       -1.18615114       1.72279012       0.21204464
H       -1.73072031      -0.35634133       0.60086886
H       -2.64973866       0.56776752      -0.61056435
H       -0.30214431       0.66079575      -1.69571310
H       -1.13883722      -1.95602295      -1.12882845
H        0.64751568      -1.27901252       0.86711812
H        1.70782759      -1.04528976      -0.16766225
H        2.33049951       0.26914208       1.19100490
H        0.89152280       1.36093281       0.83123174
H        1.24496547       0.77809226      -0.54811895
14
Properties=species:S:1:pos:R:3 energy=-4305.117114564319 name=nbu_bent smiles=CCCC config_type=start_9 pbc="F F F"
C       -1.48546116       0.28432245      -0.01624044
C       -0.20945200      -0.11821021      -0.51149901
C        0.46386201      -0.67095899       0.17107886
C        1.42531271       0.82667263       0.24177247
H       -1.15917189       1.09974386       0.55254478
H       -1.75746607      -0.16653795       0.78809817
H       -2.40719354       0.35075687      -0.56761814
H       -0.69893297      -0.37221606      -0.98159578
H       -0.80561615      -1.70598723      -0.89649436
H        0.88782982      -0.76927851       1.60823990
H        1.67145471      -1.44828798      -0.62815311
H        2.82628242       0.36166781       1.10595824
H        1.43617176       1.57298429       0.85626444
H        1.82672176       0.41268344      -0.89403156
14
Properties=species:S:1:pos:R:3 energy=-4305.117114564319 name=nbu_bent smiles=CCCC config_type=start_10 pbc="F F F"
C       -1.59648212       0.68537059       0.11091512
C       -0.85521392      -0.27617929      -1.02671698
C        0.96358131      -1.00123396       0.11112176
C        1.32931978       0.10973983       0.23506661
H       -1.20060270       1.50943427       0.47555879
H       -1.97815921      -0.02118071       1.28942961
H       -3.11355194       0.95255095      -0.85157623
H        0.06062974      -0.31354784      -1.97927650
H       -1.13015981      -1.88607638      -0.44188682
H        0.49401364      -1.02192389       1.11277938
H        1.46506782      -1.27561342      -0.19098878
H        3.00146885       0.32965268       0.97462551
H        0.94682666       1.03767464       1.21474250
H        1.86077053       1.20357240      -0.42252319
14
Properties=species:S:1:pos:R:3 energy=-4305.117114564319 name=nbu_bent smiles=CCCC config_type=start_11 pbc="F F F"
C       -1.56189303       0.15890463      -0.15625249
C       -0.57357981       0.08393254      -0.16541993
C        0.58131931      -0.43587984      -0.44423746
C        1.48090330       0.68182306       0.25480620
H       -0.97296826       1.65441511       0.14941796
H       -2.25638701      -0.05141717       1.03275428
H       -2.40757106       0.57001200      -0.75674708
H        0.53401055       0.11806644      -2.01225613
H       -1.20199022      -1.17276975      -0.82005656
H        0.52276858      -1.45749126       1.63349040
H        1.63176347      -1.35385555      -0.52940123
H        3.07773638       0.34356278       1.18512890
H        0.99258835       1.28556068       0.96809628
H        1.86255349       1.10292750      -0.56075123
14
Properties=species:S:1:pos:R:3 energy=-4305.117114564319 name=nbu_bent smiles=CCCC config_type=start_12 pbc="F F F"
C       -1.55129646       0.05972855       0.50955810
C       -0.86328075      -0.76675965      -0.90738884
C        0.96913450      -0.67470562       0.33522734
C        1.87244273       0.34765102       0.13506269
H       -1.07101138       1.57375626       0.59192071
H       -2.02902317      -0.46704075       0.64648800
H       -2.86623803       0.14192553      -0.66167168
H       -0.62659924      -0.15625867      -2.01728115
H       -0.86886244      -1.14478327      -1.27525004
H        0.54032568      -1.56751308       1.09572116
H        1.10064264      -1.16469169       0.09397363
H        2.63218002       0.35007946       1.01860716
H        0.67277872       1.13646455       0.91714673
H        1.77987535       1.45564712      -0.33909365
14
Properties=species:S:1:pos:R:3 energy=-4305.117114564319 name=nbu_bent smiles=CCCC config_type=start_13 pbc="F F F"
C       -0.97640669       0.53220604       0.36226207
C       -0.50919609      -0.14249700      -0.27025542
C        0.55660722      -1.01219247       0.18836573
C        1.59423679       0.51249057       0.59208004
H       -1.11774499       1.28564447      -0.07803692
H       -1.54629343      -0.32017981       0.56057368
H       -2.22124216       0.32502163      -0.58337425
H        0.31499561      -0.00261644      -1.14188440
H       -0.94045239      -1.45587868      -0.88619932
H        0.15241348      -1.27706309       1.24147250
H        1.42844053      -1.83020903      -0.93905357
H        2.68234697       0.34203205       1.45207647
H        0.95482112       0.90965661       0.60347122
H        2.38715193       1.05990498      -0.36524147
14
Properties=species:S:1:pos:R:3 energy=-4305.117114564319 name=nbu_bent smiles=CCCC config_type=start_14 pbc="F F F"
C       -1.15435257      -0.26844227       0.07749470
C       -0.65024140      -0.20912448      -0.51341719
C        0.52044110      -0.80329401       0.70310173
C        1.45469414       0.83582145       0.76139931
H       -1.60948630       1.53853382       0.22350477
H       -2.62332773      -0.81045251       0.64199366
H       -2.80486352       0.95299103      -0.71459506
H       -0.15067054       0.23719033      -1.86933265
H       -1.18333589      -1.85460303      -0.98316721
H        0.51552169      -1.40128669       1.72445255
H        1.49570284      -2.00710318      -0.33683007
H        2.58029084       0.09616326       1.07292346
H        0.71164442       0.62558621       1.16346969
H        1.37900905       0.83903246      -0.43912794
14
Properties=species:S:1:pos:R:3 energy=-4305.117114564319 name=nbu_bent smiles=CCCC config_type=start_15 pbc="F F F"
C       -1.12216667       0.40735654      -0.51377187
C       -0.36808969      -0.65958218      -0.39046918
C        0.48890744      -1.16441401       0.52785671
C        1.83632269       0.62960607       0.37883035
H       -1.51469788       1.85012265      -0.03379447
H       -1.88276119       0.12541915       1.11900378
H       -2.67883925       0.61812531      -1.04518271
H       -0.07036130      -0.29090742      -1.66332837
H       -0.96066376      -1.72753021      -0.99203751
H        0.60214231      -1.37566566       1.25171345
H        1.12277141      -1.65939424      -0.49582372
H        3.06921990       0.23076971       1.23743772
H        1.27556526       1.44182002       1.30446490
H        1.92082735       1.13797811      -0.43535814
14
Properties=species:S:1:pos:R:3 energy=-4305.117114564319 name=nbu_bent smiles=CCCC config_type=start_16 pbc="F F F"
C       -2.12953373       0.03152320       0.01710563
C       -0.17020329       0.06597332      -0.56059782
C        1.00008321      -0.86253400      -0.54133544
C        1.12299421       0.34419791       0.32675439
H       -0.77179331       1.36485481       0.50029394
H       -1.97908880       0.22286680       1.09815445
H       -2.67316855       0.59483058      -1.16268722
H       -0.08382492       0.36087095      -1.57040395
H       -0.99453754      -1.61537015      -0.62380961
H        0.61472220      -1.30702151       1.31923411
H        1.03263429      -1.64151430      -0.55042164
H        2.19657796       0.15127859       0.85630623
H        1.01250629       1.22805858       0.68049329
H        2.06144916       0.40325325      -0.68577831
14
Properties=species:S:1:pos:R:3 energy=-4305.117114564319 name=nbu_bent smiles=CCCC config_type=start_17 pbc="F F F"
C       -1.35180256       0.79939651       0.40830751
C       -0.23947895      -0.38949874      -0.58903232
C        0.97223234      -0.77038801       0.33945610
C        1.57497566      -0.11209068       0.27686800
H       -0.85326466       1.81252297       0.65046530
H       -1.60188478      -0.67670036       1.56893264
H       -2.60518612       0.37111382      -0.92551643
H       -0.81253099       0.63567241      -1.89786629
H       -1.61248364      -1.40101721      -0.85434346
H       -0.04501881      -1.65322428       0.68664579
H        1.35612582      -1.31697342      -0.42320176
H        2.36269427       0.45111355       1.22983536
H        0.74675258       0.87938792       1.04416911
H        1.88137435       1.06924797      -0.15038282
14
Properties=species:S:1:pos:R:3 energy=-4305.117114564319 name=nbu_bent smiles=CCCC config_type=start_18 pbc="F F F"
C       -2.05999759       0.47335161      -0.09038550
C       -0.66616064      -0.19961781      -0.85918704
C        0.91661650      -1.05975245      -0.10371901
C        1.48340808       0.66822376       0.52867809
H       -1.20308619       1.62624087      -0.18101957
H       -1.69622078      -0.30481622       1.16592287
H       -2.94483927       0.30940694      -0.83492630
H        0.37925004       0.25371719      -1.51990364
H       -1.13344964      -1.19502589      -0.66180346
H        0.26495169      -1.26602217       0.93551289
H        1.59812471      -1.34755602      -0.49002227
H        2.64943435       0.32274854       0.69525158
H        1.02837659       1.22629811       0.88457355
H        1.10585405       0.87156769      -0.40292062
14
Properties=species:S:1:pos:R:3 energy=-4305.117114564319 name=nbu_bent smiles=CCCC config_type=start_19 pbc="F F F"
C       -1.76924438       0.78162435       0.23231102
C       -0.56494592      -0.51016329      -0.89608666
C        0.46460462      -0.92664487      -0.11666509
C        1.68182956       0.39032151       0.16173084
H       -1.47877415       1.61281634       0.00020190
H       -1.54969020      -0.41855555       0.99967258
H       -2.27073472       0.24416438      -1.10199083
H        0.15824599       0.17913863      -1.48310606
H       -1.47855290      -1.54837524      -1.68091796
H        0.63124301      -1.25726511       1.56092880
H        1.31027871      -1.16873929      -0.17911043
H        2.69500573       0.52219397       0.73332876
H        1.22552788       0.93471275       0.78753344
H        2.46458521       1.35766629      -0.47789728
14
Properties=species:S:1:pos:R:3 energy=-4305.117114564319 name=nbu_bent smiles=CCCC config_type=start_20 pbc="F F F"
C       -1.05923226       0.08537242      -0.22206876
C       -0.58694919      -0.46055959      -0.34289954
C        0.29450682      -0.58169978      -0.16213314
C        1.27132285       0.64080497       0.52317857
H       -0.67012945       1.38711836       0.06426503
H       -1.61405948       0.11252646       0.86609190
H       -2.35702392       0.47122886      -0.01722148
H       -0.75585038      -0.33178441      -1.59144181
H       -0.75538458      -1.54059394      -0.85479534
H        0.53176521      -1.69428953       1.37022082
H        1.10238224      -1.43379436      -0.20176893
H        2.65345207       0.41408301       1.03956300
H        0.78963653       1.16181449       1.14786764
H        1.73035519       1.17395954      -0.58243272
14
Properties=species:S:1:pos:R:3 energy=-4305.117114564319 name=nbu_bent smiles=CCCC config_type=start_21 pbc="F F F"
C       -1.12471892       1.04817119       0.36792588
C       -0.27156388      -0.41789257      -1.05172829
C        1.04508940      -0.39122293      -0.00920520
C        1.63192126      -0.14706881       0.38904769
H       -1.24870120       1.61288093       0.51535843
H       -1.93133564      -0.48669581       0.75555355
H       -2.12348713       0.78920113      -0.71601519
H       -0.27378342       0.29794882      -1.72686567
H       -0.82504944      -1.09724463      -0.96804298
H        0.19952377      -1.59251027       0.75227881
H        0.81971107      -1.73927582      -0.10940649
H        2.57441348       0.33859836       1.12738028
H        1.12245183       1.57772539       1.10415451
H        0.69371432       1.55958695      -0.75196191
14
Properties=species:S:1:pos:R:3 energy=-4305.117114564319 name=nbu_bent smiles=CCCC config_type=start_22 pbc="F F F"
C       -1.27380455      -0.16893077      -0.39074601
C       -0.34679646      -0.38474822      -0.71614012
C        0.99469872      -1.14388541       0.58098625
C        1.37305151       0.37384203       0.20476450
H       -1.54866119       1.22097596       0.55427905
H       -1.25197313       0.23211603       0.72175568
H       -2.63493922       1.06553834      -0.51942622
H       -0.46745620       0.09837637      -1.39856584
H       -0.83160847      -1.89922171      -1.18531356
H       -0.06826248      -1.37617827       1.38656677
H        1.46781169      -1.47858424      -0.51442525
H        2.61823041       0.36894620       0.61557461
H        1.19233006       1.24087050       0.88351964
H        2.19391074       1.16692257      -0.12962228
14
Properties=species:S:1:pos:R:3 energy=-4305.117114564319 name=nbu_bent smiles=CCCC config_type=start_23 pbc="F F F"
C       -1.34908943       0.91309739      -0.76196940
C       -0.46517533      -0.44709309      -0.19679165
C        0.51735477      -0.84995195       0.20981097
C        1.86369227       0.08635295       0.65117735
H       -0.56493441       0.97536562       0.85943253
H       -2.13054813      -0.03269839       0.52191241
H       -2.62033281       0.65599239      -0.24111884
H       -0.64488874       0.42853752      -1.81759119
H       -0.82921480      -1.51158711      -1.04877052
H        0.68453896      -1.35560384       0.91803490
H        1.11522892      -1.68344929      -0.28514276
H        2.63459027       0.24109278       0.58989497
H        1.01112709       1.37384640       0.71692550
H        2.00345882       1.30113082      -0.35484022
14
Properties=species:S:1:pos:R:3 energy=-4305.117114564319 name=nbu_bent smiles=CCCC config_type=start_24 pbc="F F F"
C       -1.46608366       0.51650870      -0.25269405
C       -0.24035364      -0.21419554      -0.37907992
C        0.92067262      -1.26056172       0.54420921
C        1.40190263       0.51641212       0.07827069
H       -0.95520472       1.10164193       0.80958236
H       -1.08922583       0.56664679       1.10743665
H       -2.49514486       0.76415922      -0.53021520
H       -0.40218750      -0.49494362      -1.31531378
H       -1.16940304      -1.29843136      -0.81730639
H        0.22585951      -0.81890149       0.95736606
H        1.47560728      -1.15551042      -0.39300156
H        2.10680709      -0.13552078       1.39482842
H        1.13313934       1.35892896       0.55781653
H        1.73017135       1.64587608      -0.33228743
