14
Properties=species:S:1:pos:R:3 energy=-4305.170793189098 smiles=CCCC name=tbu config_type=start_0 pbc="F F F"
C       -0.15983007       0.31563262       0.18405167
C        0.71446090       0.78508403       0.23011211
C       -1.83899647      -0.29456746      -0.53011497
C        1.24911238      -1.08637370      -0.02153057
H        0.35828990       0.71153142      -1.06687043
H       -0.12713006       2.21308615      -0.12818738
H        1.41456483       1.71101023      -0.32112715
H       -0.14748988       1.42620078       1.11677899
H       -1.72068284      -0.28587101       0.98423421
H       -2.11092954       0.30590375       0.09880482
H       -2.14600839      -0.62028126      -0.61213543
H        1.00787917      -0.96745815       1.24401276
H        2.28854205      -1.16886455      -0.33433751
H        0.38444541      -2.28667617      -1.11025798
14
Properties=species:S:1:pos:R:3 energy=-4305.170793189098 smiles=CCCC name=tbu config_type=start_1 pbc="F F F"
C       -0.32736126      -0.10796114      -0.10725730
C        0.25955235       1.86657259      -0.14345875
C       -1.80403901      -0.38964674      -0.60274334
C        0.60871731      -1.39911986      -0.15875408
H       -0.06640745      -0.24898804      -1.48596098
H       -0.52140283       2.52425887      -0.21239661
H        1.53743514       1.54340822       0.10228888
H        0.41745435       1.78836269       1.62914405
H       -2.10477302      -0.78917057       1.19403682
H       -2.14181329       1.05367702      -0.25818810
H       -1.45959593      -1.49045643      -0.76232993
H        0.49531972      -0.66824098       1.69953622
H        2.64687427      -1.11430031      -0.29584854
H        1.17263136      -2.31292542      -0.63152316
14
Properties=species:S:1:pos:R:3 energy=-4305.170793189098 smiles=CCCC name=tbu config_type=start_2 pbc="F F F"
C        0.47937277       0.07409749      -0.83898421
C        0.38156944       1.60901870      -0.15473526
C       -1.96481759      -0.12152964      -0.44967268
C        1.40140319      -1.02408790       0.47529929
H        0.47240381       0.54490452      -1.58495194
H       -0.47432881       2.80321110       0.38596431
H        1.66741609       1.34849379       0.32137465
H        0.40288540       1.29106197       1.64482445
H       -1.52761575      -0.84409362       1.29826959
H       -2.22145322       0.94269420      -0.23879073
H       -2.01750582      -1.10261796      -0.69498504
H        1.09460735      -0.97117242       1.14543353
H        1.99736394      -0.63511916      -0.18862480
H        0.77074918      -2.07688048      -0.09710460
14
Properties=species:S:1:pos:R:3 energy=-4305.170793189098 smiles=CCCC name=tbu config_type=start_3 pbc="F F F"
C       -0.13707178       0.07859169      -0.18627665
C        0.72531954       1.67398932       0.32023247
C       -1.85636056      -0.57496126      -0.37348678
C        1.21164210      -1.24738582       0.09029970
H        0.07741700       0.55741276      -1.83281391
H        0.16680062       2.13407416      -0.19908245
H        1.65136516       1.36373295       0.19716864
H        1.11473819       1.62035546       1.41402119
H       -1.34678162      -0.63024098       1.01226835
H       -1.95469905       0.62950426      -0.34430067
H       -1.90775835      -1.36621987      -0.76261684
H        0.99851259      -1.55947501       1.24968116
H        1.98477104      -1.14876276      -0.71094242
H        0.79317065      -1.86919191      -0.25053186
14
Properties=species:S:1:pos:R:3 energy=-4305.170793189098 smiles=CCCC name=tbu config_type=start_4 pbc="F F F"
C        0.01035443       0.11339600      -0.34402022
C        0.57800486       0.95412603      -0.20381068
C       -1.29466804       0.07878418      -0.08036086
C        1.09934911      -0.73831565       0.30571025
H        0.41430781       0.71799560      -1.22503398
H       -0.08100195       2.24304268       0.21460888
H        1.55216956       1.49463097      -0.02766322
H        0.62085526       1.77854194       1.91218943
H       -1.84864132      -0.57987296       0.67523168
H       -1.98919015       0.27124130      -0.29227361
H       -1.98219788      -1.22119436      -1.00499147
H        1.41067402      -1.57871578       1.07864379
H        1.95093770      -1.13113496      -0.15907162
H        1.11430439      -2.01637482      -0.06820538
14
Properties=species:S:1:pos:R:3 energy=-4305.170793189098 smiles=CCCC name=tbu config_type=start_5 pbc="F F F"
C       -0.23413774       0.11069492      -0.75939967
C        0.68862614       1.35515408       0.50584784
C       -1.63013378      -0.27516739      -0.04052776
C        1.29121351      -0.81754255      -0.13535485
H        0.44641316      -0.08950659      -1.33849608
H       -0.46061124       1.78010112      -0.21690548
H        1.93492058       1.49211349      -0.35543525
H        0.37454852       1.15440692       1.14283372
H       -1.46810787      -0.53910819       1.05869460
H       -2.22768266       0.04482030      -0.52884928
H       -2.20431582      -0.62886438      -0.81152480
H        1.56003720      -1.44976527       1.23393425
H        1.77761548      -1.55642997       0.21432800
H        0.49892341      -1.98171032      -0.43509387
14
Properties=species:S:1:pos:R:3 energy=-4305.170793189098 smiles=CCCC name=tbu config_type=start_6 pbc="F F F"
C       -0.27292809       0.08855375      -1.01925920
C        0.88463463       1.24597203       0.16836744
C       -1.79809337      -0.60124280       0.09170303
C        1.22601875      -0.79471771      -0.13456117
H        0.16347186       0.54825512      -1.55629036
H       -0.01368031       1.92820567      -0.43622714
H        1.33501734       1.65324552       0.06692065
H        0.25959569       1.92842375       1.32223190
H       -1.80320622      -0.89855895       0.70414655
H       -1.89653832       0.60156048      -0.75687188
H       -1.43186541      -0.69907276      -0.49514425
H        0.63709451      -1.24688792       1.25546390
H        1.85806480      -0.74293119      -0.47469826
H        0.00579847      -2.26698774      -0.64140495
14
Properties=species:S:1:pos:R:3 energy=-4305.170793189098 smiles=CCCC name=tbu config_type=start_7 pbc="F F F"
C        0.10994484      -0.03508355      -0.47669044
C        0.76938400       1.72651579       0.45430599
C       -1.72846199      -0.13456399      -0.17056514
C        0.76388971      -0.76081537      -0.23391053
H        0.19045111      -0.07479114      -1.21579022
H       -0.04042607       2.11800905      -0.24899783
H        1.57756246       1.43623487       0.10986686
H       -0.13719297       0.89541194       2.03634922
H       -1.46998515      -0.64852323       0.93648064
H       -1.65622418       1.11129449      -0.01575010
H       -1.46823829      -1.10207098      -0.95563511
H        1.13287742      -1.15436219       1.17041724
H        2.40271376      -0.53087971      -0.44966556
H        0.58755476      -2.63239656      -0.98731756
14
Properties=species:S:1:pos:R:3 energy=-4305.170793189098 smiles=CCCC name=tbu config_type=start_8 pbc="F F F"
C       -0.00107612       0.36596459      -0.34953488
C        0.12362208       1.56854671      -0.06091198
C       -1.22874269      -0.46483896      -0.23052224
C        0.66789678      -1.47774817      -0.24061639
H        0.14902030       0.33489927      -1.29277621
H       -0.26111921       2.26336629       0.25233361
H        0.87120406       2.03802895      -0.17409123
H        0.62236974       0.95408016       1.03866850
H       -1.79452881      -0.82861238       1.39108818
H       -2.05004036       0.85864911      -0.51121062
H       -1.67462518      -0.92939642      -0.51847078
H        1.30806385      -1.18637732       1.03908451
H        1.91336866      -1.06618936      -0.09118750
H        0.62160353      -1.84150760      -0.51580919
14
Properties=species:S:1:pos:R:3 energy=-4305.170793189098 smiles=CCCC name=tbu config_type=start_9 pbc="F F F"
C        0.03351297      -0.16050137      -0.61670249
C        0.40525619       1.92865854       0.80038507
C       -1.61100469       0.10051516      -0.78588146
C        0.81948030      -0.90566494      -0.22087680
H        0.37665474       0.47988011      -1.61891704
H       -0.53934701       2.23312983      -0.00434172
H        1.57718494       1.65549000      -0.07926208
H        1.09575055       1.38569444       1.00568887
H       -1.86635922      -0.11530575       1.01291844
H       -2.02128542       0.42308174       0.00950040
H       -1.50792953      -1.00763855      -0.85688323
H        1.38433138      -1.17246722       1.24958790
H        1.95913035      -0.81830332      -0.33783372
H        0.62338649      -1.94215250      -0.65403723
14
Properties=species:S:1:pos:R:3 energy=-4305.170793189098 smiles=CCCC name=tbu config_type=start_10 pbc="F F F"
C        0.04410954      -0.25967745       0.04910810
C        0.11555525       1.07796635       0.05841616
C       -1.22318950      -0.13831062      -0.00641666
C        1.21101973      -1.23983698      -0.34062031
H        0.27861162       0.39922126      -1.17641429
H       -0.31198317       1.81750625      -0.39060800
H        1.11851797       1.22740353       0.01581332
H       -0.06485924       1.11136933       1.00066385
H       -1.53323144      -0.08731927       0.55772496
H       -2.00372832       0.31305992      -0.52826884
H       -2.03905036      -0.81847469      -0.23350837
H        0.93877502      -1.16595054       1.08306616
H        1.63932072      -0.96739945      -0.38878327
H        0.54070835      -1.58943288      -0.43237965
14
Properties=species:S:1:pos:R:3 energy=-4305.170793189098 smiles=CCCC name=tbu config_type=start_11 pbc="F F F"
C        0.61899931       0.21280004      -0.09818793
C        0.46963991       1.70222900       0.69554958
C       -1.63571678      -0.47579747      -0.15327827
C        0.93281379      -1.07499743       0.11639704
H        0.23187801       0.11110947      -1.84637192
H        0.17074657       1.96436719      -0.47652232
H        1.76351384       1.41049963       0.09411075
H        0.87673561       1.26501156       1.87606060
H       -1.60482139      -0.39841468       0.94677568
H       -2.39164052       0.60350991      -0.38251750
H       -1.71125247      -1.48399203      -1.26653557
H        0.98894197      -1.17399795       1.51653547
H        1.92136312      -1.19420739      -0.70245878
H        1.14798493      -1.98517502      -0.45852747
14
Properties=species:S:1:pos:R:3 energy=-4305.170793189098 smiles=CCCC name=tbu config_type=start_12 pbc="F F F"
C        0.44105343      -0.58784827      -0.38295530
C        0.32859460       1.63560152       0.45238781
C       -1.67188290      -0.26689901       0.36145773
C        0.79327114      -0.75166655       0.28571631
H       -0.25986330       0.36399882      -1.54483023
H       -0.90628773       1.47409449      -0.39510234
H        1.17989248       2.03846903      -0.03711006
H        0.41106946       1.50481833       1.14861235
H       -1.84770489      -0.79713903       0.84980779
H       -2.02853231       0.47928631       0.10046255
H       -1.64399016      -1.66088618      -0.66431207
H        0.88688584      -1.41986674       1.13738246
H        1.67818642      -1.47827779      -0.14246031
H        0.13984205      -2.20604754      -0.53241394
14
Properties=species:S:1:pos:R:3 energy=-4305.170793189098 smiles=CCCC name=tbu config_type=start_13 pbc="F F F"
C        0.47323933       0.08795054      -0.97422187
C        0.61074631       1.18514382       0.57533582
C       -1.70341656      -0.62801901       0.18621271
C        1.17489969      -0.95788193      -0.09685265
H       -0.16507488       0.67558765      -1.80212947
H       -0.16572119       2.40996615       0.08190778
H        1.30591675       1.70360331      -0.36769771
H        0.49137870       0.97672058       1.35461663
H       -1.62503276      -0.67006621       0.84093749
H       -1.94191169       0.50490734      -0.37227655
H       -2.01692159      -1.31317724      -0.82330572
H        1.37581490      -1.28526029       1.30189672
H        2.24210726      -0.66204398      -0.00146510
H        0.68166035      -1.90710189      -0.52864414
14
Properties=species:S:1:pos:R:3 energy=-4305.170793189098 smiles=CCCC name=tbu config_type=start_14 pbc="F F F"
C       -0.53412773      -0.28788280      -0.44334437
C        0.80863271       1.91069932       0.40520718
C       -1.19224079      -0.32613900      -0.88297944
C        0.46157121      -1.24329009      -0.14892861
H        0.57782969       0.19031981      -1.26804106
H       -0.26204880       2.50741380       0.06105845
H        1.31158745       1.68030858      -0.48520222
H        0.47791508       1.62849895       1.44754105
H       -1.65890654      -0.55790615       1.20916539
H       -1.92933180       0.57355149      -0.30475589
H       -2.10705871      -1.29529730      -0.87790364
H        0.50317296      -1.36475141       0.92076523
H        1.97904829      -0.87580542      -0.62543671
H        0.82228216      -2.64182675      -0.77906431
14
Properties=species:S:1:pos:R:3 energy=-4305.170793189098 smiles=CCCC name=tbu config_type=start_15 pbc="F F F"
C        0.24360344       0.47999051      -0.05214249
C        0.73935705       1.45522726       0.37677268
C       -1.22009166      -0.23399301      -0.00218790
C        0.91355266      -1.69957868      -0.19881500
H        0.49635834       0.63798797      -1.11786970
H        0.11515522       1.60784664       0.53183664
H        1.37956988       1.45659182      -0.24803143
H       -0.25079099       1.90330041       1.12007871
H       -2.27685264      -0.34355321       0.97863154
H       -2.58907281       0.22734872      -0.93734421
H       -1.78356718      -0.97075642      -0.75068376
H        0.66928927      -1.06491645       1.29429436
H        1.71329458      -1.22447608      -0.26176089
H        0.64220735      -1.97583203      -0.24366882
14
Properties=species:S:1:pos:R:3 energy=-4305.170793189098 smiles=CCCC name=tbu config_type=start_16 pbc="F F F"
C       -0.46459159       0.15394561      -0.55083550
C        0.31267536       1.64510819       0.10661796
C       -1.27570750      -0.52335745      -0.44536301
C        0.82198508      -0.91926424       0.05299509
H        0.14653681       0.45170587      -1.94935457
H        0.02081922       1.97973078       0.12882687
H        1.03991673       1.39488494      -0.15744130
H        0.94099004       1.52134519       1.49804136
H       -1.79781864      -0.13756189       1.17117154
H       -2.27910231       0.61455083      -0.68847711
H       -1.54156829      -1.00133902      -0.81750427
H        0.95602935      -1.19328146       0.75971058
H        1.99491859      -0.87756589      -0.42135645
H       -0.13331295      -2.17351231      -0.49620662
14
Properties=species:S:1:pos:R:3 energy=-4305.170793189098 smiles=CCCC name=tbu config_type=start_17 pbc="F F F"
C       -0.17383838       0.46221835      -0.22813898
C        0.41389008       1.33456271       0.06971834
C       -1.72771938      -0.39024987      -0.45830909
C        1.02040656      -1.19716649      -0.31395216
H       -0.12915115       0.43828134      -1.76813310
H        0.16734980       1.86599145      -0.03742342
H        1.71402128       1.32964238      -0.42450583
H        0.71998599       1.44676663       1.53483894
H       -2.14292190      -0.49091124       0.15205704
H       -1.91281099       0.62330789      -0.06306120
H       -1.82941429      -0.82252229      -0.50659243
H        1.00160073      -0.99383603       0.79778776
H        2.19206988      -1.16915125      -0.51839656
H        1.22541821      -1.68741371      -0.57118328
14
Properties=species:S:1:pos:R:3 energy=-4305.170793189098 smiles=CCCC name=tbu config_type=start_18 pbc="F F F"
C        0.53617374      -0.23403358      -0.68251876
C        0.39188681       1.38416641       0.62290546
C       -1.89781718      -0.04530478      -0.50377714
C        0.60989985      -0.94668303       0.04749557
H        0.67949355       0.21258336      -1.70406997
H        0.10298052       2.39707346      -0.17100410
H        1.62773208       1.55670686       0.66026352
H       -0.19411038       0.93584359       1.42650319
H       -1.41975358      -0.48312994       0.97817966
H       -2.01228879       0.18628347      -0.25376918
H       -2.03731076      -1.08757736      -0.52925093
H        0.96004707      -1.10194699       1.10402200
H        1.75617853      -0.94204951      -0.15806236
H        0.49118819      -1.87112046      -0.67571872
14
Properties=species:S:1:pos:R:3 energy=-4305.170793189098 smiles=CCCC name=tbu config_type=start_19 pbc="F F F"
C        0.47068708       0.72876519      -0.09252412
C        0.70727212       1.42683343      -0.08592329
C       -1.14723460       0.14517207      -0.35084920
C        0.97049826      -1.73455681      -0.08663531
H        0.10092180       0.43834593      -1.25297657
H       -0.21429564       1.79785119      -0.28154245
H        1.86126887       1.87467913      -0.03853019
H        0.28795658       1.56557682       1.29107933
H       -1.48941844      -0.03978063       0.86493202
H       -2.34453023       0.28806273      -0.87171119
H       -2.31998193      -1.39305882      -0.43688849
H        0.88100848      -1.17743164       1.19183928
H        2.08899383      -0.52613861      -0.20177549
H       -0.54545268      -1.48549305      -0.84524791
14
Properties=species:S:1:pos:R:3 energy=-4305.170793189098 smiles=CCCC name=tbu config_type=start_20 pbc="F F F"
C        0.32160145      -0.48833677      -0.85119601
C        0.63203954       1.45997778       0.24966488
C       -1.19762528      -0.60749041       0.23934225
C        0.71162851      -1.21364597      -0.27091850
H       -0.19903819       0.04644096      -1.21405595
H        0.46506687       2.51666303      -0.31534032
H        1.34981678       2.15101634       0.15805878
H        0.09428380       1.36600437       1.61937916
H       -1.49597747      -0.84175771       0.64766144
H       -2.61231648       0.50439473      -0.23742323
H       -1.67188131      -1.13236724      -0.84190725
H        0.92482541      -1.14708380       0.68003361
H        2.15887206      -0.86299350      -0.42241036
H        0.95474374      -1.87815743      -0.22290828
14
Properties=species:S:1:pos:R:3 energy=-4305.170793189098 smiles=CCCC name=tbu config_type=start_21 pbc="F F F"
C        0.24631657       0.59369139      -1.22241940
C        0.51366067       1.39763291       0.76901335
C       -1.67496923      -0.31355695      -0.13183303
C        1.20226927      -1.50113505       0.17549435
H        0.78468859      -0.19916938      -0.90890247
H       -0.41350813       2.25184861      -0.51518359
H        1.36442319       1.74147039       0.43636616
H       -0.08314874       1.69616552       1.20035381
H       -1.49358380      -0.45412311       0.78420448
H       -1.85951504       0.52496916      -0.70595510
H       -2.02446408      -1.33723229      -0.61262476
H        0.94118527      -1.27493722       0.65435397
H        1.97766909      -0.73001760      -0.58900450
H        0.76429182      -1.74394918      -0.44812622
14
Properties=species:S:1:pos:R:3 energy=-4305.170793189098 smiles=CCCC name=tbu config_type=start_22 pbc="F F F"
C        0.12932234       0.19710270      -0.71314405
C        0.73848236       1.63053046       0.58672508
C       -1.27165138      -0.72416672       0.20256521
C        0.74047963      -1.07107588      -0.39741231
H        0.39441828      -0.07289307      -0.95875264
H        0.62781417       2.85119379       0.07034065
H        1.48961114       1.84963722       0.14726980
H        0.15955250       0.77268438       1.70263122
H       -1.83377204      -0.24096736       1.01566861
H       -2.31819449       1.06167151      -0.66662394
H       -1.66408572      -0.80929342      -0.72048356
H        0.41340209      -1.65155078       1.45928742
H        2.09968134      -0.74493504      -0.74811347
H        0.49100435      -1.39920392      -0.42557343
14
Properties=species:S:1:pos:R:3 energy=-4305.170793189098 smiles=CCCC name=tbu config_type=start_23 pbc="F F F"
C        0.17113056       0.10325422      -0.55334123
C        0.40303171       1.31936057      -0.57928215
C       -0.96772536      -0.70223759      -0.38744835
C        1.11756716      -1.50500927       0.02183038
H       -0.29629637      -0.00388847      -1.55598447
H       -0.17577769       2.06953519      -0.12257190
H        1.06977784       1.48803786       0.26094036
H        0.45376306       1.44664587       1.55952717
H       -1.37272807      -0.10725120       0.78382591
H       -2.02132456       0.59789755      -0.74763073
H       -1.51402948      -1.61001775      -0.38150492
H        0.20783472      -1.51884188       1.21590819
H        1.62230215      -0.69406786      -0.52360403
H        0.23145987      -2.24491243      -0.68428931
14
Properties=species:S:1:pos:R:3 energy=-4305.170793189098 smiles=CCCC name=tbu config_type=start_24 pbc="F F F"
C        0.36311744      -0.02703035       0.24486916
C       -0.10178474       0.89926986       0.60047345
C       -1.09229958      -0.31937460      -0.49800108
C        0.96935696      -0.62606338      -0.70751197
H        0.48839497       0.92537057      -1.59637782
H       -0.35314517       2.46523259      -0.18696865
H        1.50916438       1.99169152       0.05104294
H        0.74884968       1.38891323       1.25553445
H       -1.98688048      -0.66705189       0.83122382
H       -1.74214738       0.74330232      -0.52601897
H       -1.56649476      -1.26130093      -0.85910615
H        0.72453787      -1.34325185       1.15719363
H        2.48196585      -0.79339030       0.05836372
H        0.53682629      -2.00070765      -0.28149198
