14
Properties=species:S:1:pos:R:3 energy=-4305.170793189098 smiles=CCCC name=tbu config_type=start_0 pbc="F F F"
C       -1.16282820      -0.52239413       0.67323499
C       -0.18914218       3.04975597      -1.11633916
C       -2.61813435      -0.75845980      -1.52128648
C       -0.09111163      -2.06651353      -0.49611460
H       -0.63528218      -1.35073681      -1.38447259
H       -1.37155942       3.23239958      -0.57328304
H        1.59460680       1.40892008       0.15842861
H        0.63192117       3.02078195       2.23561016
H       -3.14501041      -1.71473291       1.95678439
H       -2.25156930       2.10448674       0.42328966
H       -0.73118277      -2.30239912      -0.79199811
H       -0.21509694       0.83300472       3.16894872
H        4.20700689      -1.58000405      -0.48881881
H        2.43804087      -2.95713641      -0.81325520
14
Properties=species:S:1:pos:R:3 energy=-4305.170793189098 smiles=CCCC name=tbu config_type=start_1 pbc="F F F"
C        1.52628524       0.08446798      -1.76585469
C        0.21758147       2.19124302      -1.15392753
C       -3.15406295       0.13526387      -1.01105092
C        2.55117462      -0.81640699       1.61739663
H        1.16075536       1.29557174      -1.71444247
H       -1.21464603       4.16224032       1.42125338
H        2.02787664       0.75920530       0.88871452
H        0.58335801       1.36311290       2.28787815
H       -1.22115282      -1.89780975       2.30422697
H       -2.51703573       1.73454399       0.48794756
H       -2.59088239      -1.00960421      -0.56751513
H        1.78252848      -0.17676674       1.32193975
H        2.04197246       0.01726646      -0.13140632
H        1.09843359      -2.17031994       0.96813999
14
Properties=species:S:1:pos:R:3 energy=-4305.170793189098 smiles=CCCC name=tbu config_type=start_2 pbc="F F F"
C       -0.52852994       0.09944865       0.40983718
C        1.36341512       2.40781172       0.42929824
C       -2.79253953      -1.37617486      -0.75709794
C        1.91863767      -1.56073341       0.33406468
H       -0.15586732       1.33726586      -2.54064903
H        0.92245208       1.93178386      -0.52890251
H        1.97437353       0.81000250       0.47469448
H        2.95620065       2.46075787       1.51853397
H       -0.61837241      -1.18496761       1.35088950
H       -1.62785518       0.69057753       0.13624778
H       -2.22505751      -1.88827723      -0.79295445
H        1.46221262      -2.13777535       1.66943188
H        1.99999613      -1.69487885      -1.87246505
H        1.17317183      -1.47802470       0.45671581
14
Properties=species:S:1:pos:R:3 energy=-4305.170793189098 smiles=CCCC name=tbu config_type=start_3 pbc="F F F"
C       -0.03710924       0.21546302      -0.11597472
C        0.87236621       0.00826742      -1.31751228
C       -0.92023112       0.80297660       0.21998847
C        1.54432771       0.13616716       1.05209982
H        0.96710203       1.87254199      -0.51471593
H        0.09644351       2.29501226       0.85006861
H        1.64372154       1.24632924      -0.27474507
H        1.30992419       2.98804614       3.17909475
H       -2.29123808      -1.01707420       0.22743394
H       -1.74282550      -0.50363234       0.30967128
H       -2.47318927      -1.40485886      -1.60086991
H        2.83608408      -2.20191125       1.09930728
H        1.88721834      -1.63611953      -0.03289575
H        2.24361764      -1.96863441       1.06447075
14
Properties=species:S:1:pos:R:3 energy=-4305.170793189098 smiles=CCCC name=tbu config_type=start_4 pbc="F F F"
C       -0.85208315       0.20645940      -1.50057289
C        1.24110379       1.34502762       1.04801614
C       -2.03845025      -0.37686197       0.35276547
C        2.18387570      -0.12792249      -0.41811718
H        1.07411985      -0.81913195      -0.89292294
H       -1.16892080       0.75187373      -0.58831261
H        2.91955828       1.23793765      -1.36731849
H        0.48890172       0.90759605       0.61457574
H       -1.02279322      -0.88119164       1.50564367
H       -2.53780055      -1.25836901      -0.47891426
H       -3.21358239       0.56957440      -0.95598100
H        3.33396132      -1.77207622       1.61694217
H        1.30947760      -3.05376956       1.21176967
H        0.19234770      -1.85308607      -0.15849089
14
Properties=species:S:1:pos:R:3 energy=-4305.170793189098 smiles=CCCC name=tbu config_type=start_5 pbc="F F F"
C       -0.98138431       0.13265548      -2.36677132
C        1.89446544       0.98108743      -0.07691852
C       -2.59831555      -1.46378002       0.79353478
C        1.96655982      -0.05183969      -0.41547158
H        0.13098219       1.30674040      -1.61890387
H        0.32084897       1.24555557      -1.31938479
H        0.91988081       1.77504442       0.04053451
H        0.10572565       3.48765215       1.21256968
H       -2.13978774      -2.07936085       0.32381684
H       -1.43398607       0.59743162      -1.23898961
H       -0.63874770       0.33554647       0.09862083
H        0.25748569      -1.09581839       1.68870766
H        1.57764200      -0.34210695      -1.08498455
H       -1.45140210      -2.80401079      -0.84619449
14
Properties=species:S:1:pos:R:3 energy=-4305.170793189098 smiles=CCCC name=tbu config_type=start_6 pbc="F F F"
C        0.29485881      -0.27946885      -0.55820881
C        1.51029668       2.58289998       0.87620996
C       -2.36621097       0.09181602      -0.08069246
C        0.42612971       0.06116809      -0.74663609
H        0.22091302      -0.77008047      -0.48390339
H        0.23169642       1.87823349      -0.69528711
H        1.72836454       1.05167558       0.18368852
H       -1.21690322       0.04427946       3.59296075
H       -1.02905084      -1.24590844       1.09826381
H       -0.63293893       2.29654497       1.23141632
H       -0.75999063      -1.00778092      -1.43634869
H        1.91009542      -0.78739931       1.40521881
H        3.39313853       0.36473128      -1.00154222
H        0.48778552      -4.02204021      -1.99923652
14
Properties=species:S:1:pos:R:3 energy=-4305.170793189098 smiles=CCCC name=tbu config_type=start_7 pbc="F F F"
C       -0.07521108       1.05735831      -0.13435693
C       -0.64224307       2.05633635      -0.84118327
C       -0.70047996      -1.00910055      -0.28054948
C        0.10615326      -2.32860789      -0.76898896
H        0.08281034       0.59555423      -0.74052338
H       -0.50394738       2.36275764       0.97581769
H       -0.62616348       3.05765582      -0.76283843
H        1.31497246       0.23984019       0.26735834
H       -2.11086304      -1.84620560       2.61362225
H       -1.94565955       1.45439370      -0.42011873
H       -1.44794693      -0.43219906       0.02086572
H        2.49405017      -0.89411640       0.96744303
H        1.76198821      -1.41963420       0.19338466
H        0.60128142      -1.38574366      -0.42754197
14
Properties=species:S:1:pos:R:3 energy=-4305.170793189098 smiles=CCCC name=tbu config_type=start_8 pbc="F F F"
C        0.04008589      -0.69752823      -1.02491564
C        0.29653729       3.25670914       2.02980691
C       -1.97468664       0.87541319      -2.13174686
C        0.61143167      -0.42166378      -0.70319034
H        0.84159179       1.07882371      -1.82765946
H       -1.43137336       2.26196944       0.12023327
H        1.72710615       1.78252599      -0.44674126
H        2.89290851       1.67855446       0.15742624
H       -2.35029774       0.53148318       1.35305646
H       -1.84980975       0.00250245       1.31558467
H       -0.89229475      -0.69300616      -1.10717578
H        2.74827526      -0.84774940       1.66912100
H        1.91452715      -0.59334740      -0.62876941
H        0.60722464      -1.72122668      -0.88830208
14
Properties=species:S:1:pos:R:3 energy=-4305.170793189098 smiles=CCCC name=tbu config_type=start_9 pbc="F F F"
C        0.07540779      -1.02811517       1.19445298
C       -0.66913251       0.42106849      -0.44342279
C       -0.68196932       0.07932726       0.46646912
C        1.91656311      -1.53557061      -1.10233538
H        0.51478141       0.80996087      -0.35265029
H       -0.67349389       0.87655748      -1.16732100
H        0.19821624       0.35557109      -0.12982325
H       -0.97579080       0.76413743       0.14067617
H       -1.23987180       0.62477144      -0.16425512
H       -1.79128605      -0.36423693      -0.47697947
H       -2.66269754      -0.06245995       0.97074043
H        1.26308738      -0.82602715       1.11404853
H        0.84849506      -1.09033451      -0.79860123
H        0.33163083      -0.54549459      -0.14944351
14
Properties=species:S:1:pos:R:3 energy=-4305.170793189098 smiles=CCCC name=tbu config_type=start_10 pbc="F F F"
C        1.99170703       0.54680980       0.70346624
C        0.51114971       2.50194400       1.68035528
C       -2.05706027      -1.04562890      -0.02306957
C        0.98920998      -0.98610544       0.42105581
H        0.35900268      -0.15041175      -2.58584239
H        0.93560522       1.36609397      -1.45370206
H        2.34820248       0.96589145       0.13116818
H        2.16285871       1.27627819       3.05866534
H       -1.47850495      -0.41221326       1.13258060
H       -3.08432674       0.60392971       0.00885834
H       -1.57003791      -2.28085108      -2.47268356
H        1.43031058      -0.85285185       2.55894623
H        1.78863639      -1.84636096      -1.84418627
H        2.35588610      -1.86463507      -0.23660291
14
Properties=species:S:1:pos:R:3 energy=-4305.170793189098 smiles=CCCC name=tbu config_type=start_11 pbc="F F F"
C        1.39855411      -2.12201789      -0.24575832
C        0.04099867       2.27985241       0.86981604
C       -2.17761401      -0.34930071       1.69271711
C        0.52406780       0.09166416       0.98545337
H       -1.28013499       0.69255274      -1.58070343
H       -2.65450908      -0.26814835      -1.18230213
H        0.40279793       3.05912275      -0.30623455
H        0.61063821       2.07563411       0.63383784
H       -2.28811664      -1.74129443       0.80935430
H       -1.87396602       0.18985102       1.61879183
H       -1.34583020      -2.87049826      -0.46527189
H        1.09012348      -1.67241448       1.29510286
H        0.97804740      -2.79326230       0.02247529
H       -1.00459017      -2.60087679      -0.48289114
14
Properties=species:S:1:pos:R:3 energy=-4305.170793189098 smiles=CCCC name=tbu config_type=start_12 pbc="F F F"
C        1.50584043       0.13064481      -2.21664689
C        0.98150436       0.77832675       1.27964274
C       -2.28272619      -1.55303403       1.10856704
C        1.79616295      -0.59572043      -0.28977649
H       -0.96417360       1.73118217      -2.43836758
H       -0.18595396       2.85142382       0.40773159
H        0.82287882       1.94290369      -1.40819338
H        0.87833566       0.31530826       1.32051876
H       -1.54587620      -1.31771835       0.77978662
H       -1.58523062       0.27525448       0.04299482
H       -2.58893498      -1.71146845      -0.99525072
H        2.71988698      -1.22372630       1.84348372
H        2.85778353      -0.07248294       0.49245933
H        0.80147084      -1.60439130      -0.47032512
14
Properties=species:S:1:pos:R:3 energy=-4305.170793189098 smiles=CCCC name=tbu config_type=start_13 pbc="F F F"
C       -1.85204978      -1.12213299      -0.44705523
C        1.64112569       3.19684507       0.71254727
C       -0.57880696      -0.54676734      -2.45540681
C       -0.58159864      -1.54708096      -0.46336305
H        1.51217498       0.11362269      -0.65807288
H       -0.50704599       3.17624932       0.33823385
H        0.84178118       1.86525459      -1.79987506
H        0.83345694       2.48790283       1.63026684
H       -1.65878879      -0.94385150       2.00721298
H       -1.54329768       0.50406831       0.26806371
H       -2.88939203      -1.65186868      -1.17724379
H       -0.18891947      -1.48869671       0.57304544
H        1.98092028      -0.78502107      -1.58744602
H        1.27021019      -4.05347417      -1.30505902
14
Properties=species:S:1:pos:R:3 energy=-4305.170793189098 smiles=CCCC name=tbu config_type=start_14 pbc="F F F"
C        0.74038745       1.43744471       0.85695104
C        1.41020683       1.67860487       0.61776562
C       -0.67164319      -0.23961402       0.48056499
C        0.92500620      -3.06804292      -0.62965100
H        1.24060381       1.60584991      -0.15750167
H        0.75030073       0.17769213       1.90749447
H        1.06838927       1.11953206      -1.00930576
H       -1.59556332       3.40390769       0.53872569
H       -3.71860914      -0.22934169       1.23876679
H       -3.74243438      -0.64994093      -1.84056404
H       -1.81108694      -0.57006574      -0.75317754
H        0.36480158      -0.48924683       1.81814253
H        1.09507461      -1.94725659      -0.37519329
H        0.66996083      -1.83349178       0.47959261
14
Properties=species:S:1:pos:R:3 energy=-4305.170793189098 smiles=CCCC name=tbu config_type=start_15 pbc="F F F"
C       -1.62026262       0.35062838      -0.80535901
C       -0.01206548       2.31154132      -0.28275014
C       -0.85702934      -1.20416215      -0.99668537
C        0.61978093      -0.46699478       0.20971595
H        0.07453205       0.98490957      -2.92911790
H        0.43584741       1.41730594       0.56412856
H       -0.06378790       0.91384248      -0.70733868
H        2.37704015       2.13072365       1.79860119
H       -2.12182912       0.45729603       1.88056678
H       -2.70919935       0.64073277      -1.01100702
H       -1.00442395      -0.67200775      -0.97591256
H        1.32060184      -0.91713019       0.03619661
H        2.03382132      -0.79088930      -0.90717851
H       -1.91510683      -2.49242602      -0.36220005
14
Properties=species:S:1:pos:R:3 energy=-4305.170793189098 smiles=CCCC name=tbu config_type=start_16 pbc="F F F"
C       -0.65108528       1.37820418       0.27029608
C        0.32531692       1.27638971      -0.40574888
C       -2.36373560      -0.76047023      -1.03983897
C        1.28118588      -1.39333563      -1.01344154
H       -0.84442785       0.94016112      -2.32504635
H        0.92428268       1.03817483       0.00996094
H        2.18322725       0.69636726      -1.59755376
H        1.64035995       1.88212842       1.92125979
H       -3.27217332      -0.72053512      -1.51648152
H       -1.48822830       0.66992296       1.07371265
H       -1.96391064      -0.07595196       0.06046024
H        1.47250642      -0.25231208       0.16312053
H        2.69099227      -1.76284049      -1.23064552
H        2.61399703      -0.87209738      -0.61212225
14
Properties=species:S:1:pos:R:3 energy=-4305.170793189098 smiles=CCCC name=tbu config_type=start_17 pbc="F F F"
C        1.71562179      -0.94263561      -1.24430320
C        0.25197268       1.44173536       1.43820820
C       -2.93072828       0.38934673      -1.19139914
C       -0.08716984      -0.55839076       0.19138425
H        1.85105449       0.18783452      -2.11150256
H        0.70971841       2.80844819      -0.43530799
H        1.89559659       1.45324888       2.01834408
H       -1.40662794       0.17905165       1.56014064
H       -0.86161227      -0.69459747       1.23726052
H       -1.81982096      -0.78682508       0.43801941
H       -2.65689888      -0.95946888      -0.01506811
H        1.33399424      -0.61268198       1.18390133
H        1.23802111      -1.00583470      -0.02953154
H        0.16656363      -1.48445319      -0.96057375
14
Properties=species:S:1:pos:R:3 energy=-4305.170793189098 smiles=CCCC name=tbu config_type=start_18 pbc="F F F"
C        1.49733292       2.26669363       0.72234558
C        1.30325707       1.58395877      -0.92455430
C       -0.42878632       1.02426957      -0.68163934
C        1.11482487      -3.18463671      -0.25571870
H       -0.07751800       0.94037643      -0.60785790
H       -0.34786881       0.81104062      -0.80376915
H        2.67405257       2.51315643      -0.31096831
H        0.20026194       2.27816241       1.10872775
H       -1.09382848       0.78323358       0.85976839
H       -2.92729245      -0.44756091      -1.62178729
H       -3.59913610      -1.97774040       0.29280669
H        1.07053227      -0.86429747       1.47662560
H        2.34740543       0.38053498      -0.17524195
H       -3.28890592      -0.19902851      -1.52567104
14
Properties=species:S:1:pos:R:3 energy=-4305.170793189098 smiles=CCCC name=tbu config_type=start_19 pbc="F F F"
C        1.00038084      -1.79031291      -1.80656071
C        1.05248182       1.69443993       0.19407294
C       -0.59675528      -1.48460536       1.28566549
C        0.25192570      -1.44826725      -0.86999599
H       -1.07738462      -0.36597346      -0.47812249
H        1.91667289       3.20708009      -0.91642872
H        0.96921226       3.43428047       0.34432828
H       -0.44531401       1.61292091       2.20306054
H       -1.11569191      -1.89002337       0.13553313
H       -3.81991325       0.27354577       0.49250588
H       -1.43880070      -1.10876848      -1.05725585
H        1.21658870      -0.76313801      -0.22939331
H        2.58033287      -0.74231465      -0.91069153
H        1.71174880      -1.50790976       0.54879441
14
Properties=species:S:1:pos:R:3 energy=-4305.170793189098 smiles=CCCC name=tbu config_type=start_20 pbc="F F F"
C        0.74943124       1.81644763      -3.04397198
C        0.65788558       1.48662370       1.92523450
C       -2.18790178      -0.50482717       0.04841457
C        1.88739490      -2.40656415       0.61804683
H        2.20170462      -1.18467461       0.53905577
H       -1.01191042       2.32436538      -1.58257297
H        1.01790029       2.06912729       1.27201953
H       -1.03675578       2.71345806       0.80630935
H       -1.10771299      -0.59790803       0.59067660
H       -1.31057512       0.34212719      -1.06926700
H       -2.61407659      -1.79165198      -0.29298085
H        1.27112155      -1.18931607      -0.31499211
H        1.97632296      -0.29906167      -1.46600533
H        1.07690908      -1.06054892      -0.20193208
14
Properties=species:S:1:pos:R:3 energy=-4305.170793189098 smiles=CCCC name=tbu config_type=start_21 pbc="F F F"
C        0.35945048       0.49448534      -1.34638751
C        1.40729120       2.26294888       1.31760695
C       -0.84350893      -1.87352641       1.16307536
C        0.34809609      -0.97303361      -1.29164204
H        0.90080360      -0.76375357       0.37288854
H        2.45916391       4.32218264       0.36917450
H        1.43519346       2.42968341       0.30836498
H       -0.22775167      -0.36481241       2.48056740
H       -2.24167380       0.11261113       1.36222370
H       -2.83950662       2.13113504      -0.93816313
H       -1.41281541      -0.03185575      -0.65251019
H       -0.48815571      -2.44469461       2.36811942
H        2.38303046      -0.34878648      -1.99636856
H        0.16595082       0.08860194      -0.12675608
14
Properties=species:S:1:pos:R:3 energy=-4305.170793189098 smiles=CCCC name=tbu config_type=start_22 pbc="F F F"
C        0.49881121       0.18165708      -0.81371145
C        0.28912238       1.22571591      -2.56908383
C        0.16957779      -1.80042930      -0.80363649
C        1.60505453      -2.41947822       0.10583359
H       -1.40157856      -0.53373824      -1.61788425
H       -0.21947563       1.71665397      -0.27386735
H        0.03574914       1.22435221       0.68726688
H        0.75295019       1.88172591       2.00355389
H       -0.70486056       0.55833167       0.58941470
H       -1.84994018       0.58522182      -1.20818578
H       -0.91262793      -2.70093685       0.47741858
H       -1.17338028      -2.00233159       1.55685530
H        0.79176649      -0.17922920      -1.24800377
H       -0.69919743      -2.73042642      -0.98914238
14
Properties=species:S:1:pos:R:3 energy=-4305.170793189098 smiles=CCCC name=tbu config_type=start_23 pbc="F F F"
C        1.13876748      -0.25262482       1.84698985
C       -1.39359914      -0.17458646       1.36343482
C       -0.24566960      -0.52421934      -1.17214560
C        1.11102055       0.51034141      -2.32530757
H        1.21405922       2.56379189      -1.75252872
H       -0.81070056       3.03564532      -0.48852316
H        1.50037093       2.90319774      -0.01239120
H        1.73657226       1.68928376       0.99024483
H       -2.75203525      -1.30767064       0.74740775
H       -0.91934960       1.06990441      -0.46947989
H       -1.08751221      -1.53854744      -1.11458549
H        0.54896357      -1.41703149       1.36114010
H        3.65731215      -0.51030401       0.69188872
H        0.31869064      -1.91641051       0.35351541
14
Properties=species:S:1:pos:R:3 energy=-4305.170793189098 smiles=CCCC name=tbu config_type=start_24 pbc="F F F"
C       -1.42025225       1.98060613       0.27012515
C        0.20411171       1.72096023       0.24054033
C       -1.67648772       0.24567278      -0.90102137
C        1.70064993      -1.03984487       1.28911503
H        0.39087749       1.24053895       0.38225578
H       -0.68672163       4.06290516      -1.11496608
H        0.65001671       1.83867750      -1.07595277
H        1.54052404      -0.03357608       2.19195281
H       -1.99110813      -1.67393001       1.08568281
H       -0.01130078       0.35511194      -0.28278960
H       -1.05925950      -1.79608868      -0.58733536
H        3.01316450      -1.97716623       0.06078478
H        4.32629722      -0.31033714       0.43068210
H        0.29856074      -1.96697103      -0.56834903
