14
Properties=species:S:1:pos:R:3 energy=-4305.138647313924 name=nbu_straight smiles=CCCC config_type=start_0 pbc="F F F"
C       -1.85468006      -0.21360455      -0.15073542
C       -0.62980440      -0.24933539       0.66517063
C        0.64376534       0.04940536      -0.03007638
C        1.93247546       0.07310469       0.78928007
H       -2.78811494      -0.42556644       0.42688116
H       -2.02593982       0.82338583      -0.54730230
H       -1.80612778      -0.91974629      -1.00559809
H       -0.77630935       0.55768500       1.52857944
H       -0.55181801      -1.19185110       1.14928747
H        0.80385862      -0.56314306      -0.89534046
H        0.58850115       1.07747316      -0.51946680
H        1.80970019       0.80786065       1.64338870
H        2.06154756      -0.99266606       1.26427300
H        2.78304603       0.32422866       0.26498169
14
Properties=species:S:1:pos:R:3 energy=-4305.138647313924 name=nbu_straight smiles=CCCC config_type=start_1 pbc="F F F"
C       -1.88117280      -0.19389986      -0.10164882
C       -0.61725269      -0.17483928       0.71709721
C        0.70556616       0.07318443      -0.06387264
C        1.87936230       0.02340602       0.80791578
H       -2.76047553      -0.42123919       0.43666401
H       -1.99062099       0.84805791      -0.62598247
H       -1.86032105      -0.87359082      -1.00205491
H       -0.69636846       0.53702750       1.53780253
H       -0.54546167      -1.20455588       1.18571417
H        0.75511479      -0.61284756      -0.89994892
H        0.55265596       1.07195897      -0.51018997
H        1.74969866       0.77968688       1.68581816
H        2.06626761      -0.95821657       1.22370393
H        2.85530646       0.31951882       0.20761448
14
Properties=species:S:1:pos:R:3 energy=-4305.138647313924 name=nbu_straight smiles=CCCC config_type=start_2 pbc="F F F"
C       -1.86089924      -0.18084706      -0.19500511
C       -0.65524444      -0.23948274       0.70138976
C        0.67436779       0.11709309      -0.02633982
C        1.86046530       0.06284881       0.77428497
H       -2.77991737      -0.40443355       0.39063999
H       -2.06079541       0.82622069      -0.62117677
H       -1.85406242      -0.90068428      -1.00757621
H       -0.76981677       0.51237766       1.49523958
H       -0.54777431      -1.20129335       1.14654451
H        0.76027496      -0.65600908      -0.90260155
H        0.53959234       1.08682082      -0.54243694
H        1.84410903       0.77332215       1.66339600
H        2.02871045      -0.96159043       1.25133161
H        2.77914011       0.33397997       0.24152776
14
Properties=species:S:1:pos:R:3 energy=-4305.138647313924 name=nbu_straight smiles=CCCC config_type=start_3 pbc="F F F"
C       -1.90841561      -0.15337904      -0.11602543
C       -0.61168691      -0.27383400       0.69614921
C        0.61428245       0.09238265      -0.09542530
C        1.93817384       0.06259603       0.81496404
H       -2.78264261      -0.36090186       0.44799756
H       -2.02423901       0.81984362      -0.64090264
H       -1.83062382      -0.90019158      -1.04400061
H       -0.79696799       0.51912978       1.51081990
H       -0.55220258      -1.20495000       1.18183692
H        0.76262955      -0.64979063      -0.83417752
H        0.52343646       1.15025097      -0.51895904
H        1.85640152       0.82726438       1.65883948
H        2.07303360      -0.96424016       1.25847195
H        2.79088124       0.26690288       0.17973100
14
Properties=species:S:1:pos:R:3 energy=-4305.138647313924 name=nbu_straight smiles=CCCC config_type=start_4 pbc="F F F"
C       -1.92516873      -0.19573841      -0.14515633
C       -0.65717777      -0.16568514       0.65879213
C        0.61777820       0.08287473      -0.10268813
C        1.87413433       0.03132141       0.80124169
H       -2.82511235      -0.45695380       0.40608850
H       -2.06366628       0.85096089      -0.64932356
H       -1.81833679      -0.91695178      -1.00165901
H       -0.74047356       0.55534597       1.56205640
H       -0.59061160      -1.25527996       1.20281718
H        0.75954117      -0.57501330      -0.86987681
H        0.59207771       1.06323346      -0.53397849
H        1.80514557       0.85718610       1.70439182
H        2.10886683      -0.95878373       1.26232085
H        2.86969984       0.26427796       0.22760448
14
Properties=species:S:1:pos:R:3 energy=-4305.138647313924 name=nbu_straight smiles=CCCC config_type=start_5 pbc="F F F"
C       -1.84449532      -0.17753255      -0.21832902
C       -0.64497606      -0.19144053       0.65766447
C        0.60170034       0.10968644      -0.08738107
C        1.95340292       0.06882461       0.86464703
H       -2.77123122      -0.37756455       0.39618941
H       -2.05895888       0.87885611      -0.58948747
H       -1.80533869      -0.93644322      -0.97975043
H       -0.74193046       0.50561590       1.56362444
H       -0.53289587      -1.26077226       1.21324046
H        0.75157718      -0.58611158      -0.86793707
H        0.53628672       1.10201730      -0.52724400
H        1.86507433       0.82689296       1.64898155
H        2.04391579      -0.91086562       1.27304322
H        2.82951162       0.28788245       0.28104634
14
Properties=species:S:1:pos:R:3 energy=-4305.138647313924 name=nbu_straight smiles=CCCC config_type=start_6 pbc="F F F"
C       -1.90613978      -0.17708313      -0.15305826
C       -0.61060105      -0.18494347       0.70516125
C        0.61254604       0.06434327      -0.07976248
C        1.93442681       0.04649482       0.82614707
H       -2.81072990      -0.37631372       0.37140321
H       -1.99484594       0.81194242      -0.64799215
H       -1.80694378      -0.93491930      -0.99217104
H       -0.67074518       0.53854525       1.54054412
H       -0.51481246      -1.23938700       1.18464034
H        0.77825259      -0.61743057      -0.87848807
H        0.54726146       1.07565711      -0.53400718
H        1.85546486       0.76806270       1.65940632
H        2.04265650      -0.96222998       1.22081146
H        2.83175376       0.30865131       0.26570361
14
Properties=species:S:1:pos:R:3 energy=-4305.138647313924 name=nbu_straight smiles=CCCC config_type=start_7 pbc="F F F"
C       -1.89139716      -0.17360270      -0.16883262
C       -0.62533251      -0.25692980       0.65275693
C        0.66871530       0.12971782      -0.05044989
C        1.92319751       0.09740183       0.84768812
H       -2.77704082      -0.36025544       0.43218120
H       -2.01962619       0.82283927      -0.60662301
H       -1.81686334      -0.92182950      -1.01465422
H       -0.72013347       0.55436389       1.59036094
H       -0.56499843      -1.23435020       1.15093667
H        0.77480348      -0.65325687      -0.87328536
H        0.53981751       1.09015966      -0.55824465
H        1.89668100       0.76613862       1.64230258
H        2.03927317      -0.96046720       1.27599854
H        2.86386714       0.29393302       0.28393626
14
Properties=species:S:1:pos:R:3 energy=-4305.138647313924 name=nbu_straight smiles=CCCC config_type=start_8 pbc="F F F"
C       -1.91584637      -0.17387281      -0.21037057
C       -0.61427039      -0.21682699       0.72372278
C        0.63516872       0.09432266      -0.04646658
C        1.94238395       0.08947915       0.80358161
H       -2.77383028      -0.44100566       0.42083499
H       -2.05758712       0.77654511      -0.64977445
H       -1.77858824      -0.92208125      -1.04743142
H       -0.74476415       0.49195039       1.51342537
H       -0.52694509      -1.23027372       1.18928296
H        0.75095423      -0.67589897      -0.89694293
H        0.51760572       1.14939266      -0.53889798
H        1.91161732       0.77903367       1.65783163
H        2.02194095      -1.00299670       1.31333850
H        2.80232904       0.29739947       0.24724741
14
Properties=species:S:1:pos:R:3 energy=-4305.138647313924 name=nbu_straight smiles=CCCC config_type=start_9 pbc="F F F"
C       -1.91972541      -0.17608693      -0.23635652
C       -0.59466954      -0.22774520       0.68997474
C        0.61837276       0.06171512      -0.03324350
C        1.93586447       0.09176163       0.80366098
H       -2.80212441      -0.37722949       0.39905556
H       -2.01289403       0.79135557      -0.67170661
H       -1.83857857      -0.90596805      -1.00519583
H       -0.75625943       0.56935207       1.53136519
H       -0.56045492      -1.26621880       1.15382816
H        0.78406867      -0.62022495      -0.91974519
H        0.59485076       1.14237182      -0.50725993
H        1.81932305       0.79932141       1.65998459
H        2.02998588      -0.92164682       1.24443587
H        2.75301655       0.26887173       0.22661631
14
Properties=species:S:1:pos:R:3 energy=-4305.138647313924 name=nbu_straight smiles=CCCC config_type=start_10 pbc="F F F"
C       -1.88143812      -0.18845066      -0.18209964
C       -0.60619460      -0.17969082       0.71856860
C        0.62533590       0.10838300      -0.05947031
C        1.88965157       0.09515186       0.79372605
H       -2.79942649      -0.43953411       0.43310558
H       -2.01556861       0.81033590      -0.65298368
H       -1.81432405      -0.92766911      -1.00090121
H       -0.79593830       0.46605089       1.60277692
H       -0.52713282      -1.24121522       1.17706156
H        0.80810008      -0.56925155      -0.84563301
H        0.59121347       1.10207200      -0.55330901
H        1.86890134       0.80857398       1.65147992
H        2.08445078      -0.90044167       1.24693914
H        2.81119218       0.23233084       0.19202504
14
Properties=species:S:1:pos:R:3 energy=-4305.138647313924 name=nbu_straight smiles=CCCC config_type=start_11 pbc="F F F"
C       -1.89254021      -0.14834584      -0.16938409
C       -0.67077079      -0.19548773       0.66704680
C        0.67530783       0.07535550      -0.06546602
C        1.88005228       0.02345858       0.79305546
H       -2.80356957      -0.39856507       0.42540698
H       -2.03763792       0.82487163      -0.60285054
H       -1.88495989      -0.86748971      -1.02929702
H       -0.71998203       0.47191772       1.50300885
H       -0.55958718      -1.25922414       1.22252232
H        0.76871846      -0.59451609      -0.89517906
H        0.57057478       1.11933946      -0.50959258
H        1.88641999       0.80537247       1.63834665
H        2.03551627      -0.95397264       1.28278695
H        2.81459705       0.31141974       0.23917588
14
Properties=species:S:1:pos:R:3 energy=-4305.138647313924 name=nbu_straight smiles=CCCC config_type=start_12 pbc="F F F"
C       -1.88908130      -0.20099244      -0.19610085
C       -0.64260738      -0.15947655       0.75317651
C        0.63708163       0.13189092      -0.12100195
C        1.89521063       0.08066691       0.79502942
H       -2.78080613      -0.38406699       0.39279290
H       -2.06546070       0.82184798      -0.62851807
H       -1.81436181      -0.90574360      -1.01981411
H       -0.67264394       0.51507914       1.49971089
H       -0.56677022      -1.18789347       1.18470534
H        0.77159396      -0.63807283      -0.84310796
H        0.58724435       1.11151525      -0.54343382
H        1.89404674       0.80676348       1.65939699
H        2.04009243      -0.92918403       1.25812233
H        2.81477535       0.30135525       0.22535308
14
Properties=species:S:1:pos:R:3 energy=-4305.138647313924 name=nbu_straight smiles=CCCC config_type=start_13 pbc="F F F"
C       -1.88802165      -0.21091005      -0.12951979
C       -0.67157748      -0.24454577       0.67897962
C        0.67586315       0.10800834      -0.04305547
C        1.93436457       0.04724970       0.78305507
H       -2.79061044      -0.39213287       0.43704317
H       -2.04272432       0.78028562      -0.66714470
H       -1.86022850      -0.94855225      -1.01030657
H       -0.78870492       0.48764663       1.49920839
H       -0.53345744      -1.18509483       1.13918600
H        0.77334967      -0.64907501      -0.89688488
H        0.53413226       1.13043163      -0.48109634
H        1.84949110       0.80741515       1.64274482
H        2.00811147      -0.94409365       1.25302737
H        2.80650753       0.33662721       0.24751883
14
Properties=species:S:1:pos:R:3 energy=-4305.138647313924 name=nbu_straight smiles=CCCC config_type=start_14 pbc="F F F"
C       -1.83053267      -0.16366230      -0.14424939
C       -0.63616901      -0.18211950       0.74269296
C        0.63461042       0.07425965      -0.05774163
C        1.90654398       0.06373366       0.82875680
H       -2.79528380      -0.42094405       0.37004741
H       -1.99445134       0.79497172      -0.67573613
H       -1.79572892      -0.93024264      -1.00247682
H       -0.69454544       0.50301086       1.58674806
H       -0.54061644      -1.21620437       1.17809107
H        0.73455845      -0.62003001      -0.88230975
H        0.56691205       1.06387990      -0.58439906
H        1.85450780       0.80661040       1.68609175
H        2.03631571      -0.96677444       1.22165982
H        2.86723519       0.29705300       0.24490405
14
Properties=species:S:1:pos:R:3 energy=-4305.138647313924 name=nbu_straight smiles=CCCC config_type=start_15 pbc="F F F"
C       -1.84832726      -0.24372713      -0.17272613
C       -0.65027354      -0.18878225       0.71837678
C        0.63099381       0.09514950      -0.00626803
C        1.89258971       0.09606674       0.84568873
H       -2.84445793      -0.39565512       0.40020158
H       -2.10215477       0.74594445      -0.66759413
H       -1.85409105      -0.86744570      -1.01559891
H       -0.74111205       0.52699153       1.51400324
H       -0.56490479      -1.25607680       1.16839428
H        0.77086927      -0.63245237      -0.83401175
H        0.57363828       1.04619048      -0.52417671
H        1.84430218       0.78202353       1.64817645
H        2.01199804      -0.99518148       1.27765967
H        2.76642090       0.27496575       0.23751541
14
Properties=species:S:1:pos:R:3 energy=-4305.138647313924 name=nbu_straight smiles=CCCC config_type=start_16 pbc="F F F"
C       -1.84510867      -0.17614725      -0.23185279
C       -0.62205837      -0.23382802       0.73067158
C        0.62784044       0.05903750      -0.02379253
C        1.93075257       0.07544521       0.80743184
H       -2.83497909      -0.36449623       0.37447165
H       -2.02809812       0.83953161      -0.61989312
H       -1.84148863      -0.90093227      -1.04865767
H       -0.73308113       0.47418176       1.53460366
H       -0.54263758      -1.24336952       1.16750725
H        0.77953133      -0.62989027      -0.88128566
H        0.53634514       1.08096138      -0.54007607
H        1.89319509       0.79548417       1.66462787
H        2.06839013      -0.91355810       1.29175919
H        2.82060274       0.30486031       0.23789239
14
Properties=species:S:1:pos:R:3 energy=-4305.138647313924 name=nbu_straight smiles=CCCC config_type=start_17 pbc="F F F"
C       -1.94584537      -0.21373058      -0.17876504
C       -0.60226973      -0.16127247       0.71365872
C        0.67895802       0.08922550      -0.13071174
C        1.85941972       0.04690439       0.80222424
H       -2.76068863      -0.41302302       0.42788049
H       -2.03773088       0.84927638      -0.62197805
H       -1.84092155      -0.90326174      -1.06040812
H       -0.73442749       0.53935960       1.54389611
H       -0.54602495      -1.23215352       1.20433004
H        0.78078932      -0.62302585      -0.87453359
H        0.52733143       1.08274937      -0.54553586
H        1.80593090       0.78753506       1.62651472
H        2.04208423      -0.93493424       1.22936203
H        2.83466492       0.23138782       0.21285037
14
Properties=species:S:1:pos:R:3 energy=-4305.138647313924 name=nbu_straight smiles=CCCC config_type=start_18 pbc="F F F"
C       -1.86807226      -0.13694325      -0.13964485
C       -0.60919730      -0.20681967       0.71081527
C        0.67617293       0.09844010      -0.04263259
C        1.90461787       0.00127553       0.79723560
H       -2.76883577      -0.36825620       0.44289763
H       -2.00001048       0.75931966      -0.57490024
H       -1.83412331      -0.92563342      -1.03669104
H       -0.80729810       0.56683974       1.51114987
H       -0.60781956      -1.21071822       1.18127665
H        0.71481522      -0.65764613      -0.93779242
H        0.55968058       1.11520346      -0.53281388
H        1.82254253       0.81751856       1.66386764
H        2.01550886      -0.96980131       1.26572961
H        2.81665743       0.29798730       0.26638992
14
Properties=species:S:1:pos:R:3 energy=-4305.138647313924 name=nbu_straight smiles=CCCC config_type=start_19 pbc="F F F"
C       -1.93889176      -0.16954774      -0.18951415
C       -0.65186546      -0.18783158       0.68379980
C        0.67061135       0.06950366      -0.08695010
C        1.89546111       0.07930698       0.82241661
H       -2.80381792      -0.38688441       0.35974914
H       -2.00944408       0.79650808      -0.61520121
H       -1.86808863      -0.93180411      -1.02763203
H       -0.68812000       0.52864422       1.54894614
H       -0.55991616      -1.19011909       1.20053065
H        0.74581227      -0.61892592      -0.91290571
H        0.58388047       1.11214520      -0.53949593
H        1.85121654       0.80468205       1.61040926
H        2.04367126      -0.93511029       1.24977005
H        2.73910541       0.27821927       0.24113614
14
Properties=species:S:1:pos:R:3 energy=-4305.138647313924 name=nbu_straight smiles=CCCC config_type=start_20 pbc="F F F"
C       -1.90981644      -0.13872046      -0.15724450
C       -0.64174399      -0.21888613       0.68010983
C        0.62541016       0.08281441      -0.08824471
C        1.91530326       0.05151675       0.78572188
H       -2.83138672      -0.38822687       0.37787129
H       -1.99479102       0.78513415      -0.63182624
H       -1.80067817      -0.93832836      -1.05433848
H       -0.71022040       0.52118636       1.55262589
H       -0.59442649      -1.22545402       1.09861920
H        0.78244140      -0.61805021      -0.85036412
H        0.55509587       1.13002687      -0.50840474
H        1.85577367       0.82462660       1.61421698
H        2.06338639      -0.96426882       1.24006604
H        2.87497852       0.32682913       0.23363847
14
Properties=species:S:1:pos:R:3 energy=-4305.138647313924 name=nbu_straight smiles=CCCC config_type=start_21 pbc="F F F"
C       -1.83881523      -0.20834566      -0.20268248
C       -0.64394432      -0.21392576       0.73542855
C        0.60840038       0.11730892      -0.09279151
C        1.87425258       0.07656510       0.82186666
H       -2.75052225      -0.41079666       0.38427760
H       -2.00122795       0.83824235      -0.64518431
H       -1.80930709      -0.91562191      -0.94586155
H       -0.80163004       0.47009406       1.54179232
H       -0.52210966      -1.22467589       1.18123147
H        0.77249362      -0.66175265      -0.86943492
H        0.53430622       1.10352136      -0.51067059
H        1.85161831       0.81381550       1.64484040
H        2.01979725      -0.94155865       1.27609946
H        2.80155552       0.30845845       0.22318493
14
Properties=species:S:1:pos:R:3 energy=-4305.138647313924 name=nbu_straight smiles=CCCC config_type=start_22 pbc="F F F"
C       -1.84536389      -0.11206578      -0.14368301
C       -0.61240579      -0.20965906       0.66454567
C        0.68345864       0.13635661      -0.07749872
C        1.91031243      -0.00222228       0.80845357
H       -2.80837942      -0.38822041       0.42938694
H       -2.03295556       0.77832012      -0.65623814
H       -1.78595341      -0.88382469      -1.01574092
H       -0.75342334       0.53306738       1.52824993
H       -0.52907614      -1.18034096       1.16990670
H        0.73926948      -0.65157473      -0.93122912
H        0.50603911       1.07297322      -0.50143435
H        1.84371445       0.80626704       1.65362213
H        2.05307878      -0.89996756       1.27172815
H        2.69789143       0.34702119       0.20623201
14
Properties=species:S:1:pos:R:3 energy=-4305.138647313924 name=nbu_straight smiles=CCCC config_type=start_23 pbc="F F F"
C       -1.86027245      -0.23377598      -0.21955020
C       -0.61992905      -0.20634462       0.69810449
C        0.67841957       0.06109036      -0.01847958
C        1.88442545       0.04986880       0.79002525
H       -2.83837542      -0.42741090       0.43327901
H       -1.96501931       0.85020130      -0.65961793
H       -1.83709862      -0.85619097      -0.99608202
H       -0.77279062       0.51311014       1.56107992
H       -0.52973205      -1.26053867       1.14817964
H        0.71249085      -0.62994153      -0.86780032
H        0.57084917       1.09904238      -0.54193623
H        1.84809614       0.80930182       1.60244156
H        2.06006661      -0.93365305       1.24966466
H        2.84791107       0.30775476       0.26846597
14
Properties=species:S:1:pos:R:3 energy=-4305.138647313924 name=nbu_straight smiles=CCCC config_type=start_24 pbc="F F F"
C       -1.86780094      -0.12557316      -0.25667254
C       -0.63176693      -0.21257911       0.75003933
C        0.63068518       0.09048370      -0.05559710
C        1.93348953       0.02111990       0.83466653
H       -2.74000274      -0.45197194       0.46379435
H       -2.05287681       0.82371986      -0.67960226
H       -1.83563798      -0.89714556      -0.96825128
H       -0.79053387       0.54612625       1.51917738
H       -0.52949268      -1.22177521       1.16183395
H        0.78777100      -0.62788408      -0.91465351
H        0.53559089       1.07855587      -0.51900798
H        1.84973213       0.79651648       1.59987360
H        2.04194631      -0.92035546       1.23300525
H        2.82886588       0.32117558       0.24594418
