20
Coordinates from ORCA-job orca0 E -236.700950984920
  C       3.046219      0.341643      0.183432
  C       1.808793     -0.531473      0.357131
  C       0.658509      0.253477     -0.201923
  C      -0.617187     -0.532298     -0.314275
  C      -1.748471      0.444904     -0.045016
  C      -3.104683     -0.192114     -0.128300
  H       3.071917      0.611370     -0.896034
  H       3.970591     -0.161638      0.491713
  H       2.830419      1.279700      0.723643
  H       1.955535     -1.494832     -0.151094
  H       1.659878     -0.663933      1.452592
  H       0.948173      0.611384     -1.218788
  H       0.523924      1.141014      0.463567
  H      -0.656895     -1.423752      0.327050
  H      -0.724396     -0.881988     -1.372653
  H      -1.566004      0.862212      0.974909
  H      -1.652011      1.237990     -0.821350
  H      -3.120425     -1.242335      0.204646
  H      -3.794451      0.438835      0.488613
  H      -3.489434     -0.098168     -1.168770
20
Coordinates from ORCA-job orca0 E -236.714361604230
  C       3.185967      0.293352      0.195812
  C       1.861061     -0.494182      0.335694
  C       0.683782      0.314199     -0.218194
  C      -0.643831     -0.456622     -0.309819
  C      -1.852772      0.465567     -0.048666
  C      -3.209618     -0.239097     -0.130801
  H       3.303053      0.577537     -0.867355
  H       4.064873     -0.282723      0.526496
  H       3.077818      1.241815      0.751477
  H       1.954445     -1.467333     -0.177479
  H       1.691000     -0.659757      1.417997
  H       0.958843      0.673413     -1.228815
  H       0.566584      1.204453      0.429190
  H      -0.664375     -1.336959      0.356309
  H      -0.748082     -0.844451     -1.344140
  H      -1.709065      0.912864      0.954223
  H      -1.802415      1.264917     -0.811441
  H      -3.172336     -1.280725      0.228217
  H      -3.952857      0.332792      0.459824
  H      -3.592076     -0.219061     -1.169434
20
Coordinates from ORCA-job orca0 E -236.718052618385
  C       3.213112      0.267575      0.200070
  C       1.866607     -0.479510      0.306635
  C       0.688503      0.353275     -0.225859
  C      -0.649453     -0.413682     -0.302453
  C      -1.879546      0.483918     -0.055173
  C      -3.224326     -0.261161     -0.130214
  H       3.390798      0.572172     -0.848394
  H       4.062118     -0.350286      0.537374
  H       3.168983      1.199797      0.792773
  H       1.929720     -1.440339     -0.237378
  H       1.677957     -0.707701      1.372847
  H       0.950194      0.732201     -1.230957
  H       0.574728      1.241213      0.424487
  H      -0.656573     -1.266053      0.403971
  H      -0.748100     -0.852662     -1.313329
  H      -1.762888      0.962753      0.934453
  H      -1.859581      1.287535     -0.813711
  H      -3.155105     -1.280165      0.289237
  H      -4.007581      0.290215      0.418496
  H      -3.579566     -0.339097     -1.173783
20
Coordinates from ORCA-job orca0 E -236.719879531491
  C       3.214931      0.248887      0.198359
  C       1.862243     -0.469546      0.278105
  C       0.686264      0.384178     -0.222347
  C      -0.651025     -0.383046     -0.287607
  C      -1.889448      0.498253     -0.062874
  C      -3.216642     -0.276343     -0.133943
  H       3.432360      0.574631     -0.835818
  H       4.043319     -0.402023      0.530290
  H       3.218492      1.156769      0.829848
  H       1.902905     -1.411406     -0.301916
  H       1.663588     -0.760419      1.327316
  H       0.933424      0.787307     -1.222353
  H       0.575749      1.265364      0.439217
  H      -0.649543     -1.204031      0.456970
  H      -0.740837     -0.872095     -1.276373
  H      -1.798602      1.005199      0.916212
  H      -1.890942      1.302717     -0.823247
  H      -3.129427     -1.265346      0.352550
  H      -4.035622      0.270151      0.365725
  H      -3.531183     -0.449202     -1.179020
20
Coordinates from ORCA-job orca0 E -236.720896997133
  C       3.211321      0.243245      0.189040
  C       1.861970     -0.469636      0.251694
  C       0.680896      0.397745     -0.202167
  C      -0.651915     -0.371249     -0.258921
  C      -1.892881      0.506009     -0.069517
  C      -3.208859     -0.280075     -0.145949
  H       3.438765      0.596707     -0.833832
  H       4.035401     -0.424864      0.499962
  H       3.237013      1.125534      0.855811
  H       1.892828     -1.386290     -0.369010
  H       1.670151     -0.818249      1.284956
  H       0.908015      0.828956     -1.196088
  H       0.577791      1.264521      0.480351
  H      -0.651397     -1.162160      0.518142
  H      -0.729906     -0.903063     -1.227146
  H      -1.824960      1.034513      0.900881
  H      -1.895261      1.304000     -0.838328
  H      -3.132465     -1.232325      0.412134
  H      -4.054956      0.283846      0.285230
  H      -3.471549     -0.537167     -1.188150
20
Coordinates from ORCA-job orca0 E -236.721758486146
  C       3.208597      0.246036      0.175135
  C       1.866439     -0.476476      0.227445
  C       0.674705      0.398827     -0.171340
  C      -0.653157     -0.371585     -0.221672
  C      -1.894235      0.509589     -0.075908
  C      -3.205272     -0.276694     -0.162556
  H       3.426369      0.632575     -0.837923
  H       4.039124     -0.428377      0.454854
  H       3.241081      1.103397      0.873662
  H       1.894585     -1.364294     -0.434602
  H       1.693398     -0.877176      1.245404
  H       0.877662      0.860357     -1.157722
  H       0.582223      1.245856      0.537686
  H      -0.660840     -1.134538      0.583124
  H      -0.717424     -0.939640     -1.170915
  H      -1.846687      1.056518      0.886118
  H      -1.883461      1.295511     -0.857930
  H      -3.159692     -1.187022      0.465036
  H      -4.069532      0.316129      0.187188
  H      -3.413883     -0.608996     -1.195990
20
Coordinates from ORCA-job orca0 E -236.722583235455
  C       3.207348      0.254968      0.158748
  C       1.874935     -0.488263      0.204110
  C       0.668778      0.390192     -0.134109
  C      -0.654982     -0.380696     -0.178771
  C      -1.894058      0.510072     -0.082444
  C      -3.206013     -0.268203     -0.181048
  H       3.401083      0.678962     -0.844260
  H       4.051503     -0.416816      0.400634
  H       3.235069      1.087970      0.886400
  H       1.904666     -1.344540     -0.498509
  H       1.728959     -0.935541      1.207018
  H       0.843957      0.883429     -1.111116
  H       0.590254      1.213145      0.604769
  H      -0.676261     -1.117531      0.649922
  H      -0.704783     -0.979410     -1.110530
  H      -1.863933      1.074341      0.870555
  H      -1.859720      1.278514     -0.881216
  H      -3.205699     -1.131958      0.510712
  H      -4.077826      0.359779      0.077986
  H      -3.363278     -0.668415     -1.199757
20
Coordinates from ORCA-job orca0 E -236.723263199308
  C       3.208636      0.264495      0.142439
  C       1.885587     -0.501271      0.179477
  C       0.664708      0.379560     -0.094922
  C      -0.657327     -0.391118     -0.134091
  C      -1.894163      0.509642     -0.090506
  C      -3.210324     -0.259681     -0.198331
  H       3.373107      0.730571     -0.847046
  H       4.067339     -0.401814      0.342595
  H       3.228718      1.070763      0.899759
  H       1.915324     -1.323500     -0.562823
  H       1.767791     -0.991953      1.165580
  H       0.810170      0.906481     -1.059379
  H       0.603523      1.174696      0.675639
  H      -0.694704     -1.102264      0.716310
  H      -0.692132     -1.016917     -1.048871
  H      -1.880203      1.094937      0.850054
  H      -1.832953      1.254513     -0.909322
  H      -3.260661     -1.070705      0.552873
  H      -4.081614      0.400539     -0.035786
  H      -3.320824     -0.726976     -1.194556
20
Coordinates from ORCA-job orca0 E -236.723719979460
  C       3.210941      0.267416      0.129157
  C       1.892724     -0.509705      0.151797
  C       0.662396      0.377285     -0.058079
  C      -0.659537     -0.393069     -0.093237
  C      -1.895610      0.511265     -0.102408
  C      -3.212661     -0.257786     -0.211889
  H       3.354631      0.778908     -0.840918
  H       4.077465     -0.399785      0.286885
  H       3.233341      1.040902      0.919928
  H       1.914761     -1.294782     -0.630099
  H       1.795628     -1.046141      1.115962
  H       0.780298      0.940400     -1.005745
  H       0.620185      1.141901      0.744214
  H      -0.712280     -1.076083      0.779148
  H      -0.678406     -1.046935     -0.988800
  H      -1.899239      1.124664      0.820104
  H      -1.814810      1.228603     -0.943422
  H      -3.306460     -1.008428      0.595778
  H      -4.083218      0.419289     -0.144526
  H      -3.280149     -0.797921     -1.174760
20
Coordinates from ORCA-job orca0 E -236.723968378446
  C       3.212562      0.265595      0.120273
  C       1.895650     -0.514004      0.121305
  C       0.661024      0.380994     -0.023872
  C      -0.661183     -0.388961     -0.058066
  C      -1.896905      0.513984     -0.119673
  C      -3.212092     -0.260727     -0.220150
  H       3.343470      0.825606     -0.824588
  H       4.081815     -0.406704      0.234930
  H       3.243354      0.999820      0.947509
  H       1.905776     -1.257467     -0.700602
  H       1.812370     -1.099180      1.058088
  H       0.754975      0.982219     -0.950655
  H       0.638455      1.111900      0.810192
  H      -0.729498     -1.042103      0.835639
  H      -0.663303     -1.071413     -0.932445
  H      -1.916700      1.161727      0.778934
  H      -1.803460      1.198860     -0.985803
  H      -3.341814     -0.943592      0.640769
  H      -4.082013      0.420003     -0.243952
  H      -3.242481     -0.876560     -1.138738
20
Coordinates from ORCA-job orca0 E -236.724021747026
  C       3.212917      0.263544      0.119725
  C       1.896126     -0.515217      0.099361
  C       0.660670      0.384453     -0.004573
  C      -0.661818     -0.385379     -0.041503
  C      -1.896965      0.515359     -0.136504
  C      -3.211254     -0.263490     -0.219109
  H       3.339245      0.858894     -0.804061
  H       4.082730     -0.412340      0.205321
  H       3.248377      0.966746      0.973333
  H       1.899864     -1.227463     -0.749666
  H       1.817843     -1.134492      1.014584
  H       0.742061      1.011833     -0.915164
  H       0.650136      1.090843      0.850547
  H      -0.741479     -1.019702      0.864484
  H      -0.652823     -1.085108     -0.902105
  H      -1.922383      1.190801      0.741463
  H      -1.799632      1.172948     -1.022912
  H      -3.358752     -0.896597      0.676097
  H      -4.080011      0.414595     -0.298209
  H      -3.224851     -0.930230     -1.102016
20
Coordinates from ORCA-job orca0 E -236.724030480043
  C       3.212793      0.263260      0.124063
  C       1.896130     -0.515165      0.095343
  C       0.660915      0.385085     -0.004915
  C      -0.661649     -0.384963     -0.044698
  C      -1.896807      0.515432     -0.142932
  C      -3.211508     -0.263866     -0.213717
  H       3.340650      0.866449     -0.794456
  H       4.082592     -0.413209      0.205360
  H       3.247046      0.959183      0.983624
  H       1.901485     -1.221400     -0.758550
  H       1.815876     -1.140712      1.006213
  H       0.742726      1.016766     -0.912517
  H       0.650548      1.087327      0.853500
  H      -0.743446     -1.018282      0.861752
  H      -0.651074     -1.085546     -0.904486
  H      -1.918651      1.198747      0.729049
  H      -1.802507      1.165005     -1.035513
  H      -3.355858     -0.888480      0.687891
  H      -4.080618      0.413411     -0.295789
  H      -3.228643     -0.939044     -1.090129
20
Coordinates from ORCA-job orca0 E -236.724039596415
  C       3.212200      0.263198      0.134728
  C       1.896105     -0.515150      0.090040
  C       0.661245      0.385525     -0.009316
  C      -0.661076     -0.384837     -0.055525
  C      -1.896335      0.515352     -0.155361
  C      -3.212011     -0.263851     -0.200745
  H       3.344055      0.878760     -0.775038
  H       4.082131     -0.413737      0.210831
  H       3.242450      0.947400      1.003771
  H       1.907074     -1.213126     -0.770469
  H       1.810392     -1.149257      0.994551
  H       0.746130      1.022214     -0.913144
  H       0.648525      1.082972      0.852898
  H      -0.745734     -1.019758      0.849549
  H      -0.648342     -1.083963     -0.916371
  H      -1.908381      1.212681      0.705716
  H      -1.810296      1.150329     -1.059182
  H      -3.344792     -0.878103      0.709723
  H      -4.082137      0.412621     -0.278694
  H      -3.241202     -0.949274     -1.068870
20
Coordinates from ORCA-job orca0 E -236.724039861073
  C       3.212066      0.263392      0.135426
  C       1.896108     -0.515268      0.090458
  C       0.661161      0.385236     -0.009956
  C      -0.661008     -0.384982     -0.056502
  C      -1.896230      0.515337     -0.155757
  C      -3.212021     -0.263643     -0.199928
  H       3.343929      0.879001     -0.774299
  H       4.082086     -0.413415      0.211577
  H       3.242061      0.947530      1.004538
  H       1.907766     -1.213665     -0.769749
  H       1.810032     -1.149018      0.995153
  H       0.746401      1.021266     -0.914220
  H       0.647807      1.083373      0.851742
  H      -0.745553     -1.020740      0.848027
  H      -0.648159     -1.083412     -0.917954
  H      -1.907468      1.213126      0.704963
  H      -1.810836      1.149833     -1.059982
  H      -3.343305     -0.879002      0.710035
  H      -4.082185      0.413042     -0.275629
  H      -3.242651     -0.947994     -1.068851
