32
Coordinates from ORCA-job orca1 E -393.717760476155
  C      -4.582220      0.591507      0.615133
  C      -4.075553     -0.832754      0.748502
  C      -2.893188     -1.069028     -0.155279
  C      -1.768179     -0.106348      0.100227
  C      -0.609132     -0.453605     -0.796338
  C       0.518858      0.535736     -0.721412
  C       1.673990      0.030581      0.135944
  C       2.821875      0.973189     -0.101000
  C       4.046102      0.640610      0.706035
  C       4.856324     -0.482871      0.127378
  H      -5.643545      0.602700      0.970320
  H      -4.581708      0.934186     -0.432682
  H      -4.007009      1.223791      1.304400
  H      -4.899258     -1.492160      0.406459
  H      -3.870120     -1.040546      1.809029
  H      -3.247488     -0.897084     -1.193582
  H      -2.605480     -2.126519     -0.047559
  H      -2.121583      0.905582     -0.211387
  H      -1.475948     -0.058535      1.168084
  H      -0.252099     -1.470528     -0.532224
  H      -0.992375     -0.441386     -1.843811
  H       0.970574      0.747858     -1.723890
  H       0.227261      1.511655     -0.288475
  H       1.913278     -1.021088     -0.070395
  H       1.335581      0.142415      1.196748
  H       3.041901      1.050847     -1.180646
  H       2.479221      1.987663      0.215019
  H       3.751438      0.447474      1.749525
  H       4.687892      1.558243      0.695475
  H       5.730320     -0.131187     -0.470226
  H       4.272192     -1.201997     -0.467846
  H       5.298078     -1.058402      0.974581
32
Coordinates from ORCA-job orca1 E -393.734342093711
  C      -4.736947      0.570028      0.690080
  C      -4.143118     -0.848408      0.788424
  C      -2.958567     -1.078095     -0.158792
  C      -1.800728     -0.101224      0.029946
  C      -0.617744     -0.441204     -0.880071
  C       0.534177      0.565002     -0.806664
  C       1.717192      0.103759      0.081379
  C       2.924630      1.025914     -0.093019
  C       4.140747      0.643264      0.752371
  C       4.938467     -0.536282      0.194653
  H      -5.769237      0.556927      1.096482
  H      -4.804548      0.913290     -0.356070
  H      -4.160160      1.263480      1.323430
  H      -4.945795     -1.556101      0.501659
  H      -3.873363     -1.047461      1.841116
  H      -3.341192     -0.949132     -1.190621
  H      -2.631830     -2.128805     -0.044394
  H      -2.157835      0.903751     -0.268100
  H      -1.486000     -0.043748      1.090437
  H      -0.252746     -1.452015     -0.618547
  H      -1.001301     -0.458435     -1.919455
  H       0.959940      0.769634     -1.809725
  H       0.207231      1.539908     -0.401208
  H       1.964696     -0.951882     -0.121321
  H       1.373095      0.194150      1.133327
  H       3.192684      1.100279     -1.164021
  H       2.604206      2.044602      0.209605
  H       3.812056      0.455046      1.789378
  H       4.811114      1.527697      0.779137
  H       5.819114     -0.216951     -0.393473
  H       4.333098     -1.226632     -0.419507
  H       5.348665     -1.140353      1.029675
32
Coordinates from ORCA-job orca1 E -393.739270359151
  C      -4.740048      0.551931      0.747705
  C      -4.108836     -0.855075      0.828146
  C      -2.956799     -1.083242     -0.165829
  C      -1.794398     -0.092386     -0.033620
  C      -0.614876     -0.424740     -0.962747
  C       0.545321      0.585936     -0.882876
  C       1.708308      0.149429      0.040597
  C       2.932183      1.067741     -0.073500
  C       4.125509      0.643046      0.799002
  C       4.893202     -0.579372      0.259002
  H      -5.733901      0.551306      1.230590
  H      -4.884667      0.869016     -0.300638
  H      -4.127113      1.296789      1.284816
  H      -4.896918     -1.600641      0.613533
  H      -3.764140     -1.034648      1.864371
  H      -3.371144     -0.995712     -1.189768
  H      -2.591590     -2.122088     -0.050131
  H      -2.162607      0.914921     -0.303959
  H      -1.450544     -0.038101      1.018163
  H      -0.242059     -1.436029     -0.714333
  H      -1.000691     -0.461245     -1.997631
  H       0.964761      0.779550     -1.886940
  H       0.182275      1.562025     -0.509667
  H       1.977584     -0.902061     -0.171885
  H       1.348068      0.197546      1.086996
  H       3.244708      1.142050     -1.134381
  H       2.619809      2.087679      0.222871
  H       3.765921      0.454522      1.827285
  H       4.821768      1.498649      0.864018
  H       5.767132     -0.284596     -0.346954
  H       4.256917     -1.239343     -0.359160
  H       5.286864     -1.202854      1.083031
32
Coordinates from ORCA-job orca1 E -393.741472065358
  C      -4.705368      0.537331      0.801104
  C      -4.049850     -0.853678      0.865480
  C      -2.938092     -1.078189     -0.172548
  C      -1.775430     -0.081144     -0.086463
  C      -0.614875     -0.408387     -1.039499
  C       0.555059      0.595049     -0.956303
  C       1.684253      0.170080     -0.000913
  C       2.912705      1.088279     -0.056975
  C       4.076758      0.637811      0.843964
  C       4.831412     -0.602961      0.320183
  H      -5.658081      0.551484      1.359268
  H      -4.927370      0.825007     -0.243497
  H      -4.060633      1.318591      1.241230
  H      -4.826520     -1.626152      0.716058
  H      -3.639460     -1.015490      1.881417
  H      -3.383152     -1.019939     -1.186219
  H      -2.545559     -2.107791     -0.063259
  H      -2.147628      0.932411     -0.325825
  H      -1.399862     -0.037542      0.955654
  H      -0.242197     -1.425258     -0.810667
  H      -1.008949     -0.449478     -2.071445
  H       0.981397      0.770083     -1.960788
  H       0.171214      1.576867     -0.617966
  H       1.973343     -0.874811     -0.222946
  H       1.298949      0.176375      1.037647
  H       3.267911      1.166761     -1.104552
  H       2.600719      2.108781      0.235544
  H       3.685873      0.443888      1.860800
  H       4.787422      1.477350      0.947397
  H       5.694622     -0.315888     -0.305863
  H       4.179287     -1.249705     -0.295252
  H       5.222101     -1.229735      1.141343
32
Coordinates from ORCA-job orca1 E -393.742724981326
  C      -4.663619      0.530293      0.847741
  C      -3.995912     -0.849404      0.894067
  C      -2.919851     -1.067759     -0.178825
  C      -1.754706     -0.073329     -0.121177
  C      -0.621154     -0.393735     -1.103547
  C       0.562380      0.592984     -1.021705
  C       1.659745      0.168669     -0.040641
  C       2.885534      1.089857     -0.048238
  C       4.022388      0.632413      0.881330
  C       4.788015     -0.607128      0.375371
  H      -5.576762      0.557016      1.468188
  H      -4.953900      0.795714     -0.186685
  H      -3.994315      1.329951      1.212388
  H      -4.767065     -1.634739      0.787124
  H      -3.540607     -1.003746      1.892256
  H      -3.390373     -1.017790     -1.181733
  H      -2.516533     -2.094586     -0.083606
  H      -2.124747      0.948606     -0.327330
  H      -1.349286     -0.049130      0.910754
  H      -0.255417     -1.419853     -0.902872
  H      -1.030818     -0.420167     -2.130594
  H       1.003473      0.742504     -2.024458
  H       0.177771      1.585666     -0.715423
  H       1.964345     -0.870045     -0.270872
  H       1.247542      0.142481      0.987606
  H       3.275508      1.175678     -1.082880
  H       2.565709      2.109028      0.240842
  H       3.603515      0.432129      1.886211
  H       4.732360      1.468784      1.015657
  H       5.634944     -0.316649     -0.272167
  H       4.136428     -1.269602     -0.223462
  H       5.195408     -1.214111      1.202786
32
Coordinates from ORCA-job orca1 E -393.743784237026
  C      -4.624956      0.528337      0.890082
  C      -3.954000     -0.846484      0.913492
  C      -2.906438     -1.056152     -0.186624
  C      -1.734870     -0.070623     -0.142844
  C      -0.630175     -0.381123     -1.156700
  C       0.568038      0.584984     -1.078190
  C       1.639577      0.157862     -0.075167
  C       2.860318      1.082803     -0.046387
  C       3.974069      0.630107      0.910365
  C       4.759847     -0.601637      0.426048
  H      -5.502886      0.563502      1.559686
  H      -4.971343      0.782687     -0.130008
  H      -3.935547      1.333193      1.202410
  H      -4.725310     -1.634825      0.828503
  H      -3.470186     -1.004657      1.897764
  H      -3.397340     -0.997721     -1.179453
  H      -2.504450     -2.085142     -0.111134
  H      -2.098577      0.960204     -0.314526
  H      -1.303503     -0.072188      0.878907
  H      -0.274509     -1.417398     -0.989953
  H      -1.059199     -0.380003     -2.176779
  H       1.025968      0.705439     -2.077832
  H       0.194005      1.590578     -0.800705
  H       1.955212     -0.876613     -0.309729
  H       1.203034      0.111238      0.942490
  H       3.277028      1.173781     -1.070028
  H       2.529656      2.100511      0.236605
  H       3.531865      0.427090      1.904889
  H       4.676871      1.469771      1.064837
  H       5.585692     -0.308199     -0.247698
  H       4.115353     -1.298027     -0.141223
  H       5.196757     -1.171298      1.265010
32
Coordinates from ORCA-job orca1 E -393.744816795139
  C      -4.591427      0.528439      0.929921
  C      -3.922836     -0.846528      0.925339
  C      -2.897120     -1.044726     -0.196455
  C      -1.715492     -0.072537     -0.155594
  C      -0.639555     -0.369799     -1.201784
  C       0.572875      0.574592     -1.127275
  C       1.624279      0.144689     -0.104328
  C       2.840141      1.073078     -0.050337
  C       3.934168      0.631955      0.932180
  C       4.739259     -0.593063      0.474247
  H      -5.438750      0.566267      1.638407
  H      -4.983291      0.782097     -0.073744
  H      -3.884761      1.330083      1.209846
  H      -4.698595     -1.631449      0.846216
  H      -3.422288     -1.017657      1.899070
  H      -3.404303     -0.965199     -1.179668
  H      -2.504909     -2.078971     -0.145070
  H      -2.070160      0.966829     -0.292180
  H      -1.261806     -0.104494      0.855887
  H      -0.295298     -1.415585     -1.072854
  H      -1.089902     -0.332443     -2.212377
  H       1.047259      0.664127     -2.122887
  H       0.215708      1.593277     -0.875631
  H       1.946571     -0.887875     -0.338665
  H       1.166695      0.089526      0.903666
  H       3.277389      1.164351     -1.065210
  H       2.498628      2.090205      0.222671
  H       3.472659      0.432483      1.918734
  H       4.629285      1.476876      1.095652
  H       5.539977     -0.304223     -0.231537
  H       4.102804     -1.332050     -0.046522
  H       5.212793     -1.112279      1.326389
32
Coordinates from ORCA-job orca1 E -393.745788423952
  C      -4.563737      0.527825      0.968187
  C      -3.900719     -0.850536      0.931035
  C      -2.890781     -1.034609     -0.208015
  C      -1.696470     -0.078417     -0.162126
  C      -0.647761     -0.359128     -1.240527
  C       0.577768      0.564728     -1.170169
  C       1.613940      0.135031     -0.128370
  C       2.827092      1.065567     -0.059203
  C       3.903762      0.638762      0.947983
  C       4.719874     -0.586957      0.521243
  H      -5.385246      0.561700      1.706967
  H      -4.991359      0.789544     -0.018524
  H      -3.842852      1.321834      1.232525
  H      -4.683269     -1.628059      0.845372
  H      -3.391785     -1.041261      1.896676
  H      -3.410602     -0.925208     -1.181669
  H      -2.513324     -2.075345     -0.184069
  H      -2.041070      0.968341     -0.263912
  H      -1.223779     -0.143576      0.838821
  H      -0.314859     -1.412699     -1.151590
  H      -1.120442     -0.280762     -2.238637
  H       1.066478      0.622317     -2.161377
  H       0.239841      1.595556     -0.942483
  H       1.938923     -0.898021     -0.357196
  H       1.139142      0.083023      0.871580
  H       3.280908      1.150147     -1.067270
  H       2.477198      2.083797      0.199048
  H       3.425933      0.451123      1.929142
  H       4.595285      1.487111      1.110040
  H       5.491127     -0.315519     -0.223313
  H       4.086751     -1.368515      0.062193
  H       5.234035     -1.047793      1.383744
32
Coordinates from ORCA-job orca1 E -393.746619638080
  C      -4.537924      0.523903      1.005540
  C      -3.882338     -0.858241      0.933177
  C      -2.885693     -1.026663     -0.221000
  C      -1.678326     -0.086622     -0.166839
  C      -0.654101     -0.348025     -1.275158
  C       0.583397      0.558107     -1.208186
  C       1.606197      0.133698     -0.148067
  C       2.820020      1.063666     -0.070743
  C       3.879952      0.649716      0.960094
  C       4.694586     -0.587350      0.568229
  H      -5.335764      0.550545      1.770089
  H      -4.995479      0.797966      0.035896
  H      -3.805584      1.310459      1.260405
  H      -4.671510     -1.627652      0.837019
  H      -3.366802     -1.071068      1.890582
  H      -3.415852     -0.885362     -1.184840
  H      -2.522873     -2.072868     -0.226118
  H      -2.013050      0.966064     -0.234260
  H      -1.189679     -0.185777      0.823211
  H      -0.331784     -1.407325     -1.226378
  H      -1.148228     -0.229457     -2.258757
  H       1.083312      0.583872     -2.195160
  H       0.262104      1.599335     -1.005249
  H       1.931371     -0.901623     -0.366231
  H       1.118271      0.092726      0.845565
  H       3.289645      1.134294     -1.072641
  H       2.466580      2.085221      0.168386
  H       3.387385      0.481842      1.937645
  H       4.574696      1.496733      1.114510
  H       5.430648     -0.347669     -0.221434
  H       4.055316     -1.402814      0.183131
  H       5.251507     -0.989632      1.433691
32
Coordinates from ORCA-job orca1 E -393.747275781208
  C      -4.511275      0.515827      1.041984
  C      -3.864944     -0.868952      0.932411
  C      -2.881236     -1.019892     -0.235930
  C      -1.661286     -0.095965     -0.171104
  C      -0.658923     -0.335511     -1.305673
  C       0.589431      0.555259     -1.240963
  C       1.599311      0.139553     -0.164000
  C       2.817115      1.065411     -0.085063
  C       3.860344      0.663767      0.968309
  C       4.662070     -0.593149      0.615989
  H      -5.286243      0.533942      1.829946
  H      -4.995384      0.804931      0.089786
  H      -3.769074      1.295802      1.288565
  H      -4.660330     -1.630368      0.825621
  H      -3.342028     -1.105482      1.880177
  H      -3.419956     -0.846518     -1.189672
  H      -2.531773     -2.070031     -0.271657
  H      -1.985583      0.961614     -0.203454
  H      -1.159922     -0.230366      0.807804
  H      -0.346946     -1.398872     -1.296684
  H      -1.172223     -0.179026     -2.273989
  H       1.097826      0.550576     -2.224004
  H       0.281139      1.605129     -1.063841
  H       1.922181     -0.899492     -0.367255
  H       1.102414      0.114682      0.825207
  H       3.302140      1.115581     -1.080880
  H       2.465289      2.092494      0.131125
  H       3.354625      0.523798      1.943698
  H       4.564605      1.504997      1.110047
  H       5.356488     -0.399279     -0.222580
  H       4.008433     -1.432248      0.315836
  H       5.263716     -0.938212      1.476353
32
Coordinates from ORCA-job orca1 E -393.747742370848
  C      -4.484730      0.503633      1.077654
  C      -3.850283     -0.882801      0.927184
  C      -2.878576     -1.012816     -0.253991
  C      -1.645481     -0.107067     -0.173568
  C      -0.662721     -0.321460     -1.330743
  C       0.595013      0.555861     -1.266932
  C       1.593677      0.149853     -0.176025
  C       2.818612      1.067753     -0.104272
  C       3.846375      0.681485      0.970121
  C       4.624811     -0.601938      0.665619
  H      -5.238679      0.510994      1.885986
  H      -4.991411      0.812587      0.143554
  H      -3.732799      1.275600      1.320033
  H      -4.652758     -1.634742      0.807574
  H      -3.320912     -1.147062      1.863971
  H      -3.423449     -0.804141     -1.197068
  H      -2.543359     -2.065871     -0.323642
  H      -1.957157      0.954817     -0.168051
  H      -1.135033     -0.280515      0.793827
  H      -0.361134     -1.387351     -1.361702
  H      -1.192543     -0.127973     -2.283382
  H       1.109857      0.523787     -2.246277
  H       0.297295      1.612667     -1.114384
  H       1.910466     -0.894490     -0.360829
  H       1.092435      0.146256      0.810914
  H       3.316507      1.090610     -1.094693
  H       2.473065      2.102335      0.084508
  H       3.330673      0.580756      1.945296
  H       4.565801      1.513155      1.090661
  H       5.270624     -0.470704     -0.222789
  H       3.951959     -1.455095      0.464353
  H       5.273854     -0.888123      1.513202
32
Coordinates from ORCA-job orca1 E -393.748031331616
  C      -4.457020      0.487836      1.114263
  C      -3.838091     -0.899533      0.917480
  C      -2.877991     -1.004670     -0.275711
  C      -1.629941     -0.121320     -0.174897
  C      -0.665549     -0.306756     -1.352158
  C       0.599393      0.559765     -1.287555
  C       1.588644      0.163650     -0.185191
  C       2.823635      1.069627     -0.128854
  C       3.837565      0.703096      0.965121
  C       4.582447     -0.612149      0.719350
  H      -5.191933      0.481855      1.940010
  H      -4.982385      0.822703      0.199563
  H      -3.694074      1.248706      1.357492
  H      -4.649478     -1.639189      0.782401
  H      -3.303590     -1.197038      1.841291
  H      -3.426991     -0.755491     -1.206453
  H      -2.559711     -2.059694     -0.384019
  H      -1.925366      0.944188     -0.126536
  H      -1.112925     -0.339532      0.779420
  H      -0.373526     -1.373391     -1.423004
  H      -1.209650     -0.077432     -2.288744
  H       1.119867      0.505112     -2.263132
  H       0.309757      1.621689     -1.156412
  H       1.895138     -0.887419     -0.348311
  H       1.086546      0.186244      0.800860
  H       3.331208      1.058484     -1.114504
  H       2.488489      2.113075      0.027615
  H       3.315921      0.655029      1.941286
  H       4.577625      1.520596      1.054421
  H       5.172869     -0.561942     -0.214994
  H       3.888593     -1.467488      0.630148
  H       5.280525     -0.838611      1.545861
32
Coordinates from ORCA-job orca1 E -393.748185833678
  C      -4.423987      0.466362      1.156892
  C      -3.824336     -0.920269      0.904828
  C      -2.877824     -0.994636     -0.301519
  C      -1.612700     -0.138669     -0.177812
  C      -0.666980     -0.290705     -1.374314
  C       0.602292      0.569009     -1.307704
  C       1.583354      0.183186     -0.195197
  C       2.832331      1.071185     -0.161218
  C       3.831319      0.728920      0.953531
  C       4.527213     -0.624656      0.783806
  H      -5.140632      0.442636      1.998252
  H      -4.965655      0.834290      0.264651
  H      -3.648287      1.212395      1.405958
  H      -4.646505     -1.644526      0.752377
  H      -3.284330     -1.257495      1.811628
  H      -3.430775     -0.698546     -1.215998
  H      -2.579609     -2.049865     -0.455294
  H      -1.887840      0.928943     -0.079973
  H      -1.089767     -0.408077      0.759776
  H      -0.382058     -1.355955     -1.484352
  H      -1.224551     -0.028230     -2.294197
  H       1.128443      0.497602     -2.279343
  H       0.317584      1.634232     -1.193800
  H       1.874268     -0.876096     -0.332355
  H       1.082527      0.238131      0.790175
  H       3.347986      1.016138     -1.141279
  H       2.513225      2.124998     -0.045005
  H       3.307267      0.752455      1.929380
  H       4.599926      1.523431      1.000352
  H       5.058199     -0.676433     -0.185581
  H       3.808783     -1.463798      0.816417
  H       5.271120     -0.795961      1.583026
32
Coordinates from ORCA-job orca1 E -393.748244891063
  C      -4.395944      0.446396      1.191569
  C      -3.811199     -0.937844      0.895657
  C      -2.876661     -0.986743     -0.321309
  C      -1.599367     -0.151342     -0.182537
  C      -0.666094     -0.278883     -1.391217
  C       0.602787      0.581256     -1.322487
  C       1.579438      0.202537     -0.204077
  C       2.841416      1.072440     -0.189669
  C       3.828264      0.748753      0.940736
  C       4.475058     -0.635817      0.836821
  H      -5.101139      0.407091      2.041938
  H      -4.946790      0.841312      0.316642
  H      -3.610795      1.179962      1.448210
  H      -4.641381     -1.650405      0.731648
  H      -3.265715     -1.305304      1.787303
  H      -3.433421     -0.655717     -1.221317
  H      -2.593165     -2.040315     -0.510264
  H      -1.858933      0.916228     -0.048054
  H      -1.072159     -0.457803      0.741071
  H      -0.381916     -1.341743     -1.524278
  H      -1.232414      0.000430     -2.300732
  H       1.132891      0.505231     -2.291709
  H       0.317355      1.646959     -1.215294
  H       1.855331     -0.863330     -0.320224
  H       1.080708      0.284213      0.780622
  H       3.361761      0.978828     -1.164484
  H       2.538758      2.134353     -0.107547
  H       3.305881      0.837187      1.913776
  H       4.623706      1.517766      0.950622
  H       4.969864     -0.768560     -0.143969
  H       3.732924     -1.447106      0.948295
  H       5.240953     -0.780034      1.620365
32
Coordinates from ORCA-job orca1 E -393.748286747450
  C      -4.374853      0.431452      1.216531
  C      -3.802284     -0.950805      0.888697
  C      -2.876741     -0.981143     -0.335732
  C      -1.590862     -0.160824     -0.186895
  C      -0.664105     -0.272674     -1.402006
  C       0.600930      0.592912     -1.330600
  C       1.576898      0.217590     -0.210314
  C       2.849184      1.072373     -0.211828
  C       3.828902      0.762674      0.928415
  C       4.435354     -0.643188      0.875273
  H      -5.075492      0.380460      2.069982
  H      -4.927671      0.848004      0.352936
  H      -3.582434      1.153748      1.482802
  H      -4.638719     -1.654226      0.716964
  H      -3.252908     -1.340177      1.768568
  H      -3.436116     -0.625082     -1.224404
  H      -2.604112     -2.032739     -0.549998
  H      -1.839011      0.906093     -0.027730
  H      -1.061436     -0.492173      0.726783
  H      -0.375734     -1.333120     -1.545144
  H      -1.235318      0.011238     -2.306973
  H       1.133178      0.522172     -2.299054
  H       0.310490      1.657015     -1.221111
  H       1.840009     -0.852977     -0.311966
  H       1.081089      0.318668      0.774246
  H       3.370768      0.949494     -1.182830
  H       2.559964      2.139692     -0.155196
  H       3.311668      0.902874      1.898136
  H       4.645415      1.508905      0.908246
  H       4.915234     -0.831400     -0.103895
  H       3.672907     -1.428104      1.027890
  H       5.205807     -0.776731      1.656315
32
Coordinates from ORCA-job orca1 E -393.748316608223
  C      -4.355073      0.418737      1.239665
  C      -3.795578     -0.961758      0.882220
  C      -2.878591     -0.975537     -0.348948
  C      -1.585018     -0.169021     -0.191915
  C      -0.662054     -0.269255     -1.411113
  C       0.597184      0.604123     -1.336370
  C       1.574780      0.228763     -0.217012
  C       2.856219      1.069534     -0.232668
  C       3.830941      0.774274      0.915836
  C       4.402451     -0.647044      0.910358
  H      -5.054809      0.356932      2.093091
  H      -4.905387      0.857403      0.385440
  H      -3.555375      1.128161      1.518580
  H      -4.638437     -1.655792      0.703769
  H      -3.242827     -1.371462      1.750667
  H      -3.440391     -0.596849     -1.226587
  H      -2.616170     -2.024829     -0.586047
  H      -1.822856      0.897089     -0.012922
  H      -1.054481     -0.520613      0.713546
  H      -0.366634     -1.327191     -1.558385
  H      -1.236632      0.013532     -2.314244
  H       1.129958      0.544973     -2.305277
  H       0.299289      1.665297     -1.218479
  H       1.825455     -0.845644     -0.308450
  H       1.082959      0.345095      0.768022
  H       3.378006      0.921030     -1.200029
  H       2.578630      2.140906     -0.199025
  H       3.320441      0.961601      1.881207
  H       4.665406      1.498851      0.867474
  H       4.882286     -0.878946     -0.059493
  H       3.620652     -1.407956      1.083539
  H       5.165653     -0.774406      1.699654
32
Coordinates from ORCA-job orca1 E -393.748322228290
  C      -4.347890      0.414601      1.248847
  C      -3.793975     -0.965175      0.879894
  C      -2.880229     -0.972889     -0.353758
  C      -1.584071     -0.171019     -0.194111
  C      -0.661961     -0.268159     -1.414434
  C       0.595625      0.607212     -1.338608
  C       1.574316      0.230222     -0.220518
  C       2.858566      1.066550     -0.240360
  C       3.831304      0.778038      0.911689
  C       4.393795     -0.646498      0.923482
  H      -5.047824      0.348451      2.101774
  H      -4.896363      0.862353      0.398139
  H      -3.545342      1.118516      1.533509
  H      -4.639493     -1.655248      0.698718
  H      -3.240066     -1.382748      1.743849
  H      -3.443123     -0.586075     -1.227130
  H      -2.621392     -2.021158     -0.599149
  H      -1.818568      0.894863     -0.009575
  H      -1.053610     -0.528576      0.709054
  H      -0.364290     -1.325291     -1.562808
  H      -1.237676      0.014247     -2.316949
  H       1.127699      0.552366     -2.308144
  H       0.295553      1.667367     -1.216900
  H       1.820675     -0.845311     -0.310371
  H       1.084542      0.350227      0.765109
  H       3.381091      0.909437     -1.205958
  H       2.584241      2.139017     -0.215172
  H       3.322446      0.980389      1.874923
  H       4.670649      1.496296      0.854170
  H       4.879623     -0.890090     -0.040573
  H       3.605720     -1.400794      1.097548
  H       5.150026     -0.771124      1.719920
32
Coordinates from ORCA-job orca1 E -393.748324656769
  C      -4.343232      0.412413      1.254926
  C      -3.792761     -0.966819      0.878971
  C      -2.881252     -0.971001     -0.356359
  C      -1.583865     -0.171255     -0.195793
  C      -0.662549     -0.267090     -1.416924
  C       0.595197      0.607922     -1.340884
  C       1.574084      0.229529     -0.223457
  C       2.859482      1.064024     -0.244530
  C       3.830117      0.779995      0.910402
  C       4.390050     -0.645256      0.931333
  H      -5.042568      0.343630      2.108132
  H      -4.891293      0.865431      0.406728
  H      -3.538963      1.113275      1.542299
  H      -4.639895     -1.654525      0.696359
  H      -3.237912     -1.389042      1.740064
  H      -3.445193     -0.579932     -1.227158
  H      -2.624146     -2.018595     -0.606365
  H      -1.816841      0.894572     -0.009071
  H      -1.053431     -0.531314      0.706393
  H      -0.364872     -1.324002     -1.566809
  H      -1.239115      0.016426     -2.318551
  H       1.126658      0.553645     -2.310798
  H       0.295188      1.667988     -1.218195
  H       1.818528     -0.846444     -0.313481
  H       1.085334      0.350398      0.762575
  H       3.383534      0.902349     -1.208538
  H       2.586372      2.136924     -0.224353
  H       3.320625      0.988785      1.871938
  H       4.671025      1.496183      0.849523
  H       4.881536     -0.893147     -0.028789
  H       3.599249     -1.397241      1.103376
  H       5.140908     -0.767829      1.733142
