! UKS B3LYP def2-SV(P) def2/J D3BJ Opt
%scf Convergence VeryTight
SmearTemp 2000
maxiter 500
end
*xyz 0 1
C -4.58222 0.591507 0.615133
C -4.075553 -0.832754 0.748502
C -2.893188 -1.069028 -0.155279
C -1.768179 -0.106348 0.100227
C -0.609132 -0.453605 -0.796338
C 0.518858 0.535736 -0.721412
C 1.67399 0.030581 0.135944
C 2.821875 0.973189 -0.101
C 4.046102 0.64061 0.706035
C 4.856324 -0.482871 0.127378
H -5.643545 0.6027 0.97032
H -4.581708 0.934186 -0.432682
H -4.007009 1.223791 1.3044
H -4.899258 -1.49216 0.406459
H -3.87012 -1.040546 1.809029
H -3.247488 -0.897084 -1.193582
H -2.60548 -2.126519 -0.047559
H -2.121583 0.905582 -0.211387
H -1.475948 -0.058535 1.168084
H -0.252099 -1.470528 -0.532224
H -0.992375 -0.441386 -1.843811
H 0.970574 0.747858 -1.72389
H 0.227261 1.511655 -0.288475
H 1.913278 -1.021088 -0.070395
H 1.335581 0.142415 1.196748
H 3.041901 1.050847 -1.180646
H 2.479221 1.987663 0.215019
H 3.751438 0.447474 1.749525
H 4.687892 1.558243 0.695475
H 5.73032 -0.131187 -0.470226
H 4.272192 -1.201997 -0.467846
H 5.298078 -1.058402 0.974581
*
