! UKS B3LYP def2-SV(P) def2/J D3BJ Opt
%scf Convergence VeryTight
SmearTemp 2000
maxiter 500
end
*xyz 0 1
C 5.196957 -0.352447 -0.101795
C 3.696577 -0.472585 -0.237504
C 3.01926 0.506666 0.674237
C 1.69824 0.988401 0.142858
C 0.65039 -0.08362 0.070458
C -0.463515 0.426771 -0.835951
C -1.7646 0.589185 -0.079805
C -2.835956 -0.365034 -0.579747
C -4.186897 0.099771 -0.108689
C -5.007453 -1.0451 0.418985
H 5.736517 -1.125668 -0.66599
H 5.530195 -0.365246 0.955545
H 5.542936 0.626658 -0.51148
H 3.393449 -1.487493 0.078757
H 3.427707 -0.232365 -1.281771
H 2.968797 0.097914 1.696813
H 3.680652 1.406168 0.736958
H 1.31823 1.79325 0.788509
H 1.880095 1.378298 -0.878992
H 1.005378 -1.034349 -0.354512
H 0.206127 -0.198555 1.084543
H -0.171942 1.383411 -1.339735
H -0.672855 -0.286677 -1.664472
H -2.165142 1.613654 -0.251595
H -1.642524 0.475499 1.01477
H -2.828474 -0.360459 -1.6942
H -2.647489 -1.405408 -0.235984
H -4.751023 0.57647 -0.949275
H -4.045318 0.915766 0.641768
H -5.554615 -0.766556 1.354397
H -5.801262 -1.323199 -0.313974
H -4.412441 -1.97312 0.575392
*
