! UKS B3LYP def2-SV(P) def2/J D3BJ Opt
%scf Convergence VeryTight
SmearTemp 2000
maxiter 500
end
*xyz 0 1
C -4.742332 -0.100962 0.270222
C -3.65742 0.510814 -0.574989
C -2.283226 0.351472 0.014525
C -1.586199 -0.829705 -0.646943
C -0.125406 -0.469797 -0.890661
C 0.503746 0.198702 0.300339
C 1.569248 -0.631607 0.958009
C 2.79218 -0.838075 0.125161
C 3.387419 0.425379 -0.421909
C 4.319117 1.106899 0.570974
H -5.593611 0.611282 0.403012
H -4.384925 -0.411732 1.272261
H -5.186194 -1.005718 -0.196822
H -3.888137 1.600064 -0.695175
H -3.748126 0.049316 -1.58109
H -1.71917 1.301845 -0.164959
H -2.35903 0.231623 1.110799
H -2.046575 -1.103979 -1.606507
H -1.605079 -1.662196 0.094301
H 0.410961 -1.383021 -1.213918
H -0.145673 0.236276 -1.757863
H -0.309047 0.316759 1.062701
H 0.828142 1.234228 0.071265
H 1.125245 -1.622273 1.167433
H 1.814352 -0.177116 1.92605
H 3.570048 -1.294727 0.787729
H 2.637024 -1.59467 -0.682748
H 4.0452 0.125431 -1.277128
H 2.645824 1.12062 -0.851114
H 3.812126 1.899914 1.149928
H 5.225327 1.510659 0.061656
H 4.694192 0.294293 1.235296
*
