13
Properties=species:S:1:pos:R:3 Coordinates=T from=T ORCA-job=T orca0=T pca-d-10="-1.3866908693014441 0.10006186074212833 1.0218774557039454 0.31752915927771164 0.16406414148563916 0.5215845904016855 0.10724355565217847 -0.014017944355090739 -0.3978539923645883 0.20348808333812385" normalised=2 pbc="F F F"
C       -0.04618095       0.01607125       0.30002864
C        0.58591452       1.36089809       0.12457804
C       -1.48219563      -0.16082549      -0.08207834
C        0.83499153      -1.19146448       0.37257290
H       -0.10198885       2.17943841       0.40918520
H        0.87507118       1.54899053      -0.93716207
H        1.51091297       1.46201503       0.72240813
H       -1.92387864      -1.06250906       0.38217527
H       -2.09593353       0.71304930       0.20805968
H       -1.60738856      -0.28129968      -1.18514944
H        0.31010533      -2.05857618       0.81606452
H        1.74888952      -1.00019811       0.96591631
H        1.17896513      -1.51629562      -0.63842384
13
Properties=species:S:1:pos:R:3 Coordinates=T from=T ORCA-job=T orca0=T pca-d-10="0.7442526063207884 -1.214571767510175 0.24216039162791214 -0.02160944366183161 0.21634105569796205 -0.21595944913979956 -0.34105193817527135 -1.1139881092288604 0.02600450366207907 -0.8432685412347378" normalised=2 pbc="F F F"
C        0.18762064      -0.00716207      -0.40816036
C        0.68377486       1.23989360       0.25519216
C       -1.34952434      -0.13179230      -0.28632629
C        0.88263654      -1.26109695       0.14260052
H        0.41473914       0.06502803      -1.49166805
H        0.51762039       2.22074996      -0.20650146
H        1.04810461       1.21638914       1.28956919
H       -1.65228886      -0.21798916       0.77354998
H       -1.85877170       0.75115504      -0.71262543
H       -1.71474925      -1.02855870      -0.82177685
H        0.67401319      -1.38008825       1.22311922
H        1.97852739      -1.20054632       0.01399222
H        0.52587940      -2.17248602      -0.37019184
13
Properties=species:S:1:pos:R:3 Coordinates=T from=T ORCA-job=T orca2=T pca-d-10="0.6367068996280273 1.3380953579795183 -0.004982076985445061 -0.7921393260875617 -0.5585777476391769 -0.8871743823946455 2.466402226917326 -0.6667183831378445 -0.309227669894768 -2.337180435646886" normalised=2 pbc="F F F"
C       -0.02388922       0.13795119      -0.45327752
C        1.07522336      -0.87515213      -0.49384362
C        0.30557071       1.29894592       0.49928168
C       -1.37981230      -0.50334274      -0.11350774
H       -0.12345988       0.57917076      -1.47401349
H        2.12027814      -0.56922748      -0.36183886
H        0.87819817      -1.89854484      -0.83448627
H       -0.48138270       2.07497753       0.46884771
H        1.26389289       1.77748851       0.22631654
H        0.39154249       0.93941939       1.54145765
H       -1.62555420      -1.31835616      -0.81845716
H       -1.36585181      -0.93166027       0.90591667
H       -2.19473965       0.24226233      -0.15915460
