13
Coordinates from ORCA-job orca6 E -157.530008447473
  C       0.065938     -0.016435     -0.305895
  C      -1.209786     -0.820465     -0.109793
  C       1.250622     -0.635312      0.370333
  C      -0.123539      1.432930      0.046074
  H       0.269424     -0.055465     -1.405490
  H      -1.421246     -1.014355      0.958372
  H      -1.157502     -1.762487     -0.712309
  H       1.417615     -1.641380     -0.061949
  H       2.143556     -0.033596      0.064740
  H       1.216795     -0.612873      1.467722
  H      -0.950459      1.821362     -0.575084
  H       0.806183      1.962775     -0.282903
  H      -0.287480      1.591521      1.138588
13
Coordinates from ORCA-job orca6 E -157.539534145998
  C       0.076842     -0.023683     -0.335711
  C      -1.175638     -0.854409     -0.102602
  C       1.289475     -0.645102      0.356609
  C      -0.128081      1.449961      0.034503
  H       0.275765     -0.059821     -1.427499
  H      -1.475928     -0.986411      0.952513
  H      -1.226969     -1.781100     -0.701002
  H       1.466611     -1.665118     -0.029757
  H       2.188844     -0.056090      0.078640
  H       1.221842     -0.628354      1.458514
  H      -0.973642      1.858576     -0.545539
  H       0.773787      2.020769     -0.265160
  H      -0.292785      1.587000      1.118898
13
Coordinates from ORCA-job orca6 E -157.543336619658
  C       0.083538     -0.034847     -0.367519
  C      -1.139139     -0.872091     -0.095136
  C       1.317439     -0.639989      0.339228
  C      -0.128290      1.441369      0.025863
  H       0.279160     -0.067858     -1.455369
  H      -1.510654     -0.923349      0.939480
  H      -1.277269     -1.787856     -0.683428
  H       1.499747     -1.675590      0.004098
  H       2.223180     -0.055179      0.087774
  H       1.206046     -0.628614      1.439470
  H      -0.993493      1.866675     -0.511331
  H       0.757418      2.045153     -0.242820
  H      -0.297563      1.548396      1.112097
13
Coordinates from ORCA-job orca6 E -157.544408107508
  C       0.087478     -0.045022     -0.383484
  C      -1.117957     -0.882814     -0.088667
  C       1.335453     -0.630287      0.326195
  C      -0.126531      1.425500      0.024278
  H       0.281668     -0.075767     -1.472264
  H      -1.548742     -0.857666      0.922429
  H      -1.304342     -1.795699     -0.668509
  H       1.521622     -1.674842      0.020019
  H       2.240275     -0.040232      0.086830
  H       1.199671     -0.621300      1.424167
  H      -1.001803      1.860002     -0.489915
  H       0.755572      2.044618     -0.222088
  H      -0.302242      1.509727      1.113414
13
Coordinates from ORCA-job orca6 E -157.544709267767
  C       0.089892     -0.051583     -0.384057
  C      -1.110394     -0.891026     -0.083343
  C       1.346671     -0.624697      0.319446
  C      -0.125922      1.414647      0.027006
  H       0.282316     -0.081566     -1.474047
  H      -1.587856     -0.810976      0.902995
  H      -1.313744     -1.802739     -0.658676
  H       1.536364     -1.671132      0.020615
  H       2.246181     -0.027142      0.079378
  H       1.208685     -0.615596      1.417187
  H      -1.002542      1.852345     -0.482757
  H       0.757546      2.036486     -0.208214
  H      -0.307076      1.489199      1.116873
13
Coordinates from ORCA-job orca6 E -157.544875125559
  C       0.092300     -0.056596     -0.377984
  C      -1.106646     -0.898832     -0.077402
  C       1.356155     -0.622507      0.315381
  C      -0.126886      1.407223      0.032279
  H       0.281448     -0.086808     -1.469388
  H      -1.632081     -0.769064      0.878216
  H      -1.313626     -1.811245     -0.649472
  H       1.548612     -1.667858      0.014586
  H       2.248938     -0.017818      0.068048
  H       1.227117     -0.612159      1.414222
  H      -1.001516      1.845178     -0.480744
  H       0.758800      2.028110     -0.197256
  H      -0.312493      1.478596      1.121922
13
Coordinates from ORCA-job orca6 E -157.544950796210
  C       0.094313     -0.059046     -0.370787
  C      -1.104666     -0.904136     -0.072474
  C       1.362345     -0.623362      0.313698
  C      -0.128720      1.404282      0.038073
  H       0.279623     -0.089587     -1.463316
  H      -1.670247     -0.738820      0.853860
  H      -1.304947     -1.820464     -0.639882
  H       1.555217     -1.666596      0.006677
  H       2.250448     -0.015303      0.057233
  H       1.245839     -0.611925      1.413876
  H      -1.000814      1.840355     -0.480580
  H       0.757867      2.023989     -0.191098
  H      -0.316136      1.476834      1.127127
13
Coordinates from ORCA-job orca6 E -157.544975910721
  C       0.095351     -0.059166     -0.366752
  C      -1.103501     -0.906264     -0.070058
  C       1.364933     -0.625046      0.313080
  C      -0.129950      1.404359      0.042192
  H       0.278076     -0.089199     -1.459821
  H      -1.694564     -0.722575      0.836449
  H      -1.293106     -1.829144     -0.630215
  H       1.556327     -1.666943      0.001063
  H       2.251794     -0.017502      0.050551
  H       1.256659     -0.613656      1.413972
  H      -1.001062      1.838362     -0.479678
  H       0.755901      2.024249     -0.189274
  H      -0.316736      1.478746      1.130897
13
Coordinates from ORCA-job orca6 E -157.544988064438
  C       0.095708     -0.058242     -0.364891
  C      -1.102593     -0.906857     -0.069201
  C       1.365890     -0.626557      0.312260
  C      -0.130454      1.405279      0.045352
  H       0.276900     -0.086944     -1.458250
  H      -1.713193     -0.711255      0.821577
  H      -1.279268     -1.838748     -0.618586
  H       1.555006     -1.667873     -0.003065
  H       2.253232     -0.021167      0.046057
  H       1.262263     -0.616018      1.413464
  H      -1.001911      1.837705     -0.477272
  H       0.753880      2.026190     -0.189082
  H      -0.315338      1.480706      1.134044
13
Coordinates from ORCA-job orca6 E -157.544998208357
  C       0.095578     -0.056562     -0.363994
  C      -1.101712     -0.906727     -0.069351
  C       1.366223     -0.628088      0.310454
  C      -0.130421      1.406451      0.048846
  H       0.275738     -0.082888     -1.457651
  H      -1.734940     -0.697630      0.802237
  H      -1.259454     -1.852731     -0.600280
  H       1.552165     -1.669267     -0.007492
  H       2.254926     -0.025866      0.041498
  H       1.265728     -0.619136      1.411817
  H      -1.003445      1.837704     -0.472292
  H       0.751704      2.029031     -0.189289
  H      -0.311970      1.481929      1.137904
13
Coordinates from ORCA-job orca6 E -157.545007237788
  C       0.094964     -0.054572     -0.363824
  C      -1.101095     -0.906192     -0.070538
  C       1.366260     -0.629464      0.307302
  C      -0.129874      1.407259      0.052682
  H       0.274665     -0.077704     -1.457896
  H      -1.760389     -0.679942      0.777019
  H      -1.234468     -1.870752     -0.574395
  H       1.548754     -1.670872     -0.012339
  H       2.256452     -0.030277      0.036659
  H       1.267529     -0.622530      1.408748
  H      -1.005589      1.838206     -0.464443
  H       0.749834      2.031751     -0.189094
  H      -0.306923      1.481307      1.142526
13
Coordinates from ORCA-job orca6 E -157.545015172905
  C       0.094097     -0.052969     -0.363865
  C      -1.100904     -0.905803     -0.072291
  C       1.366522     -0.630573      0.302953
  C      -0.129083      1.407144      0.056729
  H       0.273673     -0.072669     -1.458539
  H      -1.788503     -0.657884      0.746147
  H      -1.207563     -1.890549     -0.542631
  H       1.546180     -1.672334     -0.017535
  H       2.257416     -0.032988      0.031471
  H       1.268954     -0.625586      1.404511
  H      -1.008099      1.838804     -0.454430
  H       0.748582      2.033322     -0.187769
  H      -0.301152      1.478304      1.147657
13
Coordinates from ORCA-job orca6 E -157.545020742667
  C       0.093511     -0.052633     -0.363495
  C      -1.101084     -0.906137     -0.073268
  C       1.367417     -0.631172      0.299019
  C      -0.128567      1.406018      0.059957
  H       0.272806     -0.070012     -1.458833
  H      -1.811368     -0.637379      0.718713
  H      -1.188435     -1.905379     -0.516273
  H       1.546030     -1.673069     -0.021715
  H       2.257578     -0.032872      0.027103
  H       1.271214     -0.627250      1.400779
  H      -1.010124      1.838894     -0.445903
  H       0.748151      2.033053     -0.185477
  H      -0.297008      1.474158      1.151799
13
Coordinates from ORCA-job orca6 E -157.545023255312
  C       0.093426     -0.053241     -0.362525
  C      -1.101257     -0.907077     -0.072874
  C       1.368747     -0.631489      0.296526
  C      -0.128522      1.404682      0.062198
  H       0.271918     -0.069582     -1.458434
  H      -1.826702     -0.622073      0.699313
  H      -1.178703     -1.913832     -0.500262
  H       1.547602     -1.673181     -0.024612
  H       2.257424     -0.031400      0.023889
  H       1.274629     -0.627873      1.398545
  H      -1.011359      1.838385     -0.440704
  H       0.747992      2.031963     -0.183194
  H      -0.295074      1.470939      1.154541
13
Coordinates from ORCA-job orca6 E -157.545023089794
  C       0.093597     -0.053714     -0.361433
  C      -1.101106     -0.907947     -0.071851
  C       1.369872     -0.631870      0.295223
  C      -0.128685      1.403981      0.063928
  H       0.271025     -0.069434     -1.457732
  H      -1.837388     -0.612258      0.685792
  H      -1.172911     -1.918756     -0.490377
  H       1.548813     -1.673234     -0.026843
  H       2.257589     -0.030874      0.021455
  H       1.278037     -0.628548      1.397448
  H      -1.012114      1.837720     -0.437868
  H       0.747502      2.031557     -0.181809
  H      -0.294108      1.469598      1.156474
13
Coordinates from ORCA-job orca6 E -157.545021274400
  C       0.093813     -0.053990     -0.359991
  C      -1.100594     -0.908936     -0.070259
  C       1.371238     -0.632462      0.293589
  C      -0.128822      1.403415      0.066413
  H       0.269717     -0.068611     -1.456778
  H      -1.852120     -0.600455      0.666853
  H      -1.164288     -1.925308     -0.476284
  H       1.549715     -1.673457     -0.029923
  H       2.258212     -0.031171      0.018061
  H       1.282380     -0.629821      1.396038
  H      -1.013176      1.836829     -0.434052
  H       0.746519      2.031686     -0.180470
  H      -0.292473      1.468501      1.159209
13
Coordinates from ORCA-job orca6 E -157.545013793738
  C       0.094120     -0.054384     -0.355059
  C      -1.098821     -0.911646     -0.064226
  C       1.375511     -0.634293      0.287742
  C      -0.128823      1.401880      0.075159
  H       0.264812     -0.064976     -1.453536
  H      -1.901717     -0.564258      0.596849
  H      -1.133983     -1.946603     -0.423825
  H       1.551434     -1.674438     -0.040054
  H       2.260527     -0.033067      0.005978
  H       1.296236     -0.633980      1.390847
  H      -1.016867      1.834228     -0.419828
  H       0.743288      2.032597     -0.176569
  H      -0.285595      1.465160      1.168928
13
Coordinates from ORCA-job orca6 E -157.545026938974
  C       0.093919     -0.055001     -0.347702
  C      -1.096219     -0.914652     -0.052695
  C       1.381070     -0.635835      0.280022
  C      -0.128040      1.400014      0.086887
  H       0.256628     -0.060508     -1.448658
  H      -1.961550     -0.526083      0.496014
  H      -1.099449     -1.969023     -0.352816
  H       1.552962     -1.675619     -0.051497
  H       2.263479     -0.035438     -0.010847
  H       1.314018     -0.637623      1.383873
  H      -1.021428      1.831130     -0.399793
  H       0.739809      2.033456     -0.172360
  H      -0.275077      1.461402      1.181979
13
Coordinates from ORCA-job orca6 E -157.545028519913
  C       0.094040     -0.055320     -0.347700
  C      -1.095413     -0.915131     -0.051661
  C       1.381343     -0.635464      0.279981
  C      -0.127850      1.399749      0.086884
  H       0.256249     -0.060460     -1.448762
  H      -1.961361     -0.525946      0.495935
  H      -1.101416     -1.968866     -0.354338
  H       1.553535     -1.675451     -0.050844
  H       2.263686     -0.034996     -0.010748
  H       1.313695     -0.636999      1.383824
  H      -1.021482      1.830759     -0.399439
  H       0.739947      2.033140     -0.172743
  H      -0.274853      1.461205      1.182016
13
Coordinates from ORCA-job orca6 E -157.545080050970
  C       0.093119     -0.055584     -0.340030
  C      -1.092378     -0.917279     -0.036864
  C       1.385922     -0.636211      0.272301
  C      -0.125900      1.398547      0.098680
  H       0.245893     -0.054820     -1.443738
  H      -2.012265     -0.500830      0.388646
  H      -1.073127     -1.985783     -0.282783
  H       1.553602     -1.676713     -0.059909
  H       2.266155     -0.037506     -0.027448
  H       1.328911     -0.638564      1.376722
  H      -1.025569      1.828555     -0.377663
  H       0.737694      2.033499     -0.170767
  H      -0.261936      1.458909      1.195260
13
Coordinates from ORCA-job orca6 E -157.545154624431
  C       0.091406     -0.054501     -0.333073
  C      -1.091834     -0.916861     -0.024705
  C       1.388223     -0.637993      0.264668
  C      -0.123929      1.398893      0.110324
  H       0.234793     -0.048101     -1.439104
  H      -2.053546     -0.487150      0.277384
  H      -1.043534     -1.998175     -0.202902
  H       1.550773     -1.678434     -0.070617
  H       2.266755     -0.041187     -0.042851
  H       1.342282     -0.641947      1.369627
  H      -1.028992      1.828901     -0.355903
  H       0.735989      2.034716     -0.168676
  H      -0.248264      1.458058      1.208234
13
Coordinates from ORCA-job orca6 E -157.545228139618
  C       0.089213     -0.052943     -0.327297
  C      -1.092469     -0.914917     -0.014053
  C       1.388999     -0.639861      0.256807
  C      -0.121554      1.399834      0.121549
  H       0.222767     -0.040231     -1.435438
  H      -2.084432     -0.484095      0.163899
  H      -1.017637     -2.004770     -0.117133
  H       1.546882     -1.679896     -0.082228
  H       2.266208     -0.044392     -0.056206
  H       1.352640     -0.646472      1.362180
  H      -1.031873      1.830781     -0.333587
  H       0.735046      2.036016     -0.166844
  H      -0.233668      1.457166      1.220756
13
Coordinates from ORCA-job orca6 E -157.545282140371
  C       0.087426     -0.050998     -0.325284
  C      -1.094186     -0.911826     -0.010556
  C       1.388187     -0.642161      0.248302
  C      -0.119184      1.400740      0.131638
  H       0.211830     -0.029802     -1.434818
  H      -2.104130     -0.488920      0.053269
  H      -0.996487     -2.005048     -0.019144
  H       1.543784     -1.680332     -0.097412
  H       2.264743     -0.045691     -0.063888
  H       1.357314     -0.654986      1.353944
  H      -1.034938      1.833543     -0.310668
  H       0.734133      2.037696     -0.165147
  H      -0.218372      1.454006      1.232169
13
Coordinates from ORCA-job orca6 E -157.545299539819
  C       0.087314     -0.050491     -0.327247
  C      -1.095865     -0.909764     -0.013985
  C       1.387717     -0.643896      0.241343
  C      -0.117874      1.400170      0.137991
  H       0.205461     -0.020404     -1.437077
  H      -2.111005     -0.493742     -0.024660
  H      -0.988681     -1.998986      0.064353
  H       1.545558     -1.678561     -0.113488
  H       2.263896     -0.043046     -0.063301
  H       1.356431     -0.666266      1.346921
  H      -1.038043      1.834112     -0.293872
  H       0.732568      2.038711     -0.164097
  H      -0.207357      1.448383      1.239525
13
Coordinates from ORCA-job orca6 E -157.545291432401
  C       0.087533     -0.050816     -0.327995
  C      -1.097648     -0.908069     -0.014949
  C       1.388233     -0.645013      0.236228
  C      -0.117142      1.399472      0.142666
  H       0.201292     -0.014079     -1.437951
  H      -2.113260     -0.499460     -0.081540
  H      -0.987984     -1.990065      0.125969
  H       1.548764     -1.676143     -0.127595
  H       2.263686     -0.039975     -0.062252
  H       1.356424     -0.676766      1.341492
  H      -1.039967      1.833416     -0.283531
  H       0.731169      2.039279     -0.162869
  H      -0.200979      1.444438      1.244732
13
Coordinates from ORCA-job orca6 E -157.545289386908
  C       0.088237     -0.051337     -0.329335
  C      -1.097788     -0.908103     -0.017513
  C       1.388662     -0.645217      0.235895
  C      -0.117610      1.398962      0.142028
  H       0.203106     -0.013726     -1.438875
  H      -2.112583     -0.496441     -0.077701
  H      -0.989516     -1.989116      0.131151
  H       1.551375     -1.674835     -0.131254
  H       2.263850     -0.038130     -0.059197
  H       1.354651     -0.680775      1.340946
  H      -1.040081      1.832342     -0.285460
  H       0.730691      2.039401     -0.162281
  H      -0.202873      1.443193      1.244002
13
Coordinates from ORCA-job orca6 E -157.545288028532
  C       0.088009     -0.051240     -0.328719
  C      -1.098021     -0.907519     -0.016045
  C       1.388754     -0.645381      0.235148
  C      -0.117389      1.399185      0.142868
  H       0.202314     -0.013093     -1.438396
  H      -2.113191     -0.498559     -0.086689
  H      -0.989030     -1.987568      0.139003
  H       1.551456     -1.674521     -0.133449
  H       2.263701     -0.037959     -0.059846
  H       1.355131     -0.682554      1.340140
  H      -1.039829      1.832542     -0.284746
  H       0.730879      2.039540     -0.161685
  H      -0.202662      1.443348      1.244823
