13
Coordinates from ORCA-job orca3 E -157.519515127965
  C      -0.044128      0.020080     -0.380368
  C      -1.443047     -0.029511      0.172956
  C       0.738679     -1.246519     -0.124827
  C       0.718642      1.242971      0.033497
  H      -0.163992      0.087142     -1.492734
  H      -2.011716     -0.774524     -0.434053
  H      -1.896500      0.952185     -0.017688
  H       1.598711     -1.290119     -0.840584
  H       0.119400     -2.127687     -0.365190
  H       1.123733     -1.250622      0.905975
  H       0.002011      2.009751      0.420483
  H       1.231080      1.718745     -0.839732
  H       1.534468      1.034087      0.768642
13
Coordinates from ORCA-job orca3 E -157.531759771939
  C      -0.038513      0.029208     -0.411733
  C      -1.458505     -0.025820      0.118452
  C       0.748246     -1.262180     -0.142290
  C       0.740410      1.278340      0.025613
  H      -0.153094      0.091640     -1.520553
  H      -2.065138     -0.816355     -0.365991
  H      -1.981105      0.944595      0.031870
  H       1.629637     -1.314074     -0.813019
  H       0.136083     -2.149946     -0.383589
  H       1.101784     -1.288377      0.901724
  H       0.050591      2.055299      0.405391
  H       1.280777      1.741708     -0.823687
  H       1.516168      1.061942      0.784189
13
Coordinates from ORCA-job orca3 E -157.537056662096
  C      -0.035301      0.038054     -0.447557
  C      -1.448845     -0.016829      0.074601
  C       0.747399     -1.262221     -0.160852
  C       0.745300      1.294768      0.012281
  H      -0.143095      0.098332     -1.554882
  H      -2.069666     -0.849440     -0.290665
  H      -2.004034      0.936474      0.088450
  H       1.656768     -1.316047     -0.785050
  H       0.140713     -2.153920     -0.402374
  H       1.057539     -1.308206      0.897683
  H       0.066482      2.080962      0.383620
  H       1.320974      1.741334     -0.817502
  H       1.473107      1.062718      0.808625
13
Coordinates from ORCA-job orca3 E -157.539757324228
  C      -0.034867      0.045800     -0.476997
  C      -1.437583     -0.008974      0.047096
  C       0.741797     -1.254890     -0.178935
  C       0.745019      1.300370     -0.001782
  H      -0.129720      0.106233     -1.586482
  H      -2.054758     -0.881276     -0.211538
  H      -2.002649      0.929345      0.144960
  H       1.680440     -1.300813     -0.758769
  H       0.143192     -2.148322     -0.434559
  H       1.003164     -1.320227      0.892592
  H       0.068265      2.100995      0.343530
  H       1.366365      1.720930     -0.811618
  H       1.418676      1.056807      0.838880
13
Coordinates from ORCA-job orca3 E -157.541332731132
  C      -0.036466      0.051347     -0.496972
  C      -1.431928     -0.003605      0.033734
  C       0.736353     -1.247313     -0.195796
  C       0.742677      1.300199     -0.013678
  H      -0.116755      0.114591     -1.608638
  H      -2.034575     -0.906162     -0.135398
  H      -1.993775      0.924523      0.199167
  H       1.698993     -1.277483     -0.736446
  H       0.150752     -2.140726     -0.480414
  H       0.952537     -1.332394      0.885033
  H       0.065206      2.120886      0.281490
  H       1.417430      1.684207     -0.798630
  H       1.356891      1.057908      0.872926
13
Coordinates from ORCA-job orca3 E -157.542453074991
  C      -0.039558      0.055098     -0.509012
  C      -1.431244     -0.000641      0.029424
  C       0.732618     -1.242390     -0.210985
  C       0.739450      1.298213     -0.021918
  H      -0.109242      0.123252     -1.621674
  H      -2.015932     -0.924341     -0.067963
  H      -1.983586      0.920713      0.248576
  H       1.712063     -1.254113     -0.721782
  H       0.162685     -2.134029     -0.530789
  H       0.914049     -1.346517      0.874905
  H       0.064070      2.142752      0.204123
  H       1.471167      1.637853     -0.776017
  H       1.290801      1.070128      0.909488
13
Coordinates from ORCA-job orca3 E -157.543358666329
  C      -0.043447      0.057662     -0.516039
  C      -1.432700      0.000434      0.030382
  C       0.730858     -1.239769     -0.224803
  C       0.735608      1.295915     -0.026698
  H      -0.109069      0.132318     -1.628598
  H      -2.000463     -0.937253     -0.010634
  H      -1.973450      0.916847      0.292549
  H       1.720640     -1.233678     -0.715724
  H       0.176325     -2.128196     -0.578421
  H       0.889376     -1.360967      0.862918
  H       0.068648      2.164884      0.118650
  H       1.524172      1.586310     -0.743552
  H       1.220844      1.091473      0.946346
13
Coordinates from ORCA-job orca3 E -157.544095838072
  C      -0.047284      0.059453     -0.520195
  C      -1.433928      0.000042      0.034899
  C       0.730981     -1.238406     -0.238003
  C       0.731420      1.294002     -0.028912
  H      -0.115819      0.141798     -1.631842
  H      -1.988044     -0.946275      0.037496
  H      -1.963619      0.912365      0.331241
  H       1.726292     -1.216749     -0.717420
  H       0.189262     -2.122885     -0.619778
  H       0.876661     -1.374509      0.849557
  H       0.080431      2.185261      0.030305
  H       1.574082      1.532654     -0.702281
  H       1.146905      1.119228      0.981311
13
Coordinates from ORCA-job orca3 E -157.544654083463
  C      -0.050305      0.060726     -0.522672
  C      -1.433445     -0.001585      0.042483
  C       0.732636     -1.237481     -0.251465
  C       0.727233      1.292932     -0.029487
  H      -0.127670      0.151606     -1.632812
  H      -1.977801     -0.952727      0.078136
  H      -1.954288      0.907063      0.364961
  H       1.730123     -1.203464     -0.725780
  H       0.199466     -2.118003     -0.653565
  H       0.873125     -1.386732      0.834847
  H       0.099338      2.202397     -0.057553
  H       1.619798      1.479394     -0.653454
  H       1.069132      1.151852      1.012738
13
Coordinates from ORCA-job orca3 E -157.545016240819
  C      -0.052195      0.061655     -0.523878
  C      -1.430833     -0.004401      0.053092
  C       0.735351     -1.236557     -0.265758
  C       0.723393      1.292917     -0.028974
  H      -0.142400      0.161564     -1.632022
  H      -1.968955     -0.957907      0.112387
  H      -1.946133      0.901011      0.393701
  H       1.732218     -1.194018     -0.740780
  H       0.205398     -2.113734     -0.679161
  H       0.877286     -1.397198      0.818661
  H       0.124752      2.215529     -0.142735
  H       1.661094      1.428110     -0.597670
  H       0.988365      1.189007      1.039514
13
Coordinates from ORCA-job orca3 E -157.545165203513
  C      -0.053050      0.062310     -0.523588
  C      -1.426791     -0.008134      0.065588
  C       0.738442     -1.235556     -0.279368
  C       0.720620      1.293808     -0.027410
  H      -0.157011      0.170484     -1.629539
  H      -1.962158     -0.962437      0.137139
  H      -1.941453      0.895164      0.413445
  H       1.731640     -1.189189     -0.761627
  H       0.205898     -2.110861     -0.693470
  H       0.888956     -1.403875      0.802786
  H       0.152892      2.223972     -0.214877
  H       1.694299      1.384518     -0.541722
  H       0.915057      1.225776      1.059022
13
Coordinates from ORCA-job orca3 E -157.545207031150
  C      -0.052711      0.062274     -0.521961
  C      -1.424707     -0.009899      0.071160
  C       0.739726     -1.235327     -0.282500
  C       0.720855      1.294619     -0.025868
  H      -0.161454      0.172224     -1.627249
  H      -1.962534     -0.963336      0.136481
  H      -1.943928      0.894058      0.410735
  H       1.729116     -1.191178     -0.772560
  H       0.202273     -2.111386     -0.688708
  H       0.898994     -1.402669      0.798644
  H       0.159346      2.225735     -0.226040
  H       1.700902      1.377181     -0.529185
  H       0.901464      1.233682      1.063429
13
Coordinates from ORCA-job orca3 E -157.545279704473
  C      -0.052007      0.061922     -0.516524
  C      -1.420026     -0.013347      0.084843
  C       0.742674     -1.234703     -0.286250
  C       0.722297      1.295553     -0.021521
  H      -0.169843      0.174684     -1.620729
  H      -1.966254     -0.963486      0.124116
  H      -1.953444      0.894064      0.392049
  H       1.721214     -1.198155     -0.797783
  H       0.192494     -2.113812     -0.668348
  H       0.926060     -1.395628      0.792307
  H       0.166363      2.227612     -0.231444
  H       1.708009      1.370391     -0.514587
  H       0.889803      1.240883      1.070248
13
Coordinates from ORCA-job orca3 E -157.545295462220
  C      -0.052391      0.061749     -0.514241
  C      -1.419096     -0.013713      0.089521
  C       0.743476     -1.234356     -0.285539
  C       0.722784      1.294764     -0.020159
  H      -0.171494      0.175078     -1.618386
  H      -1.968106     -0.962701      0.117392
  H      -1.957296      0.895907      0.381466
  H       1.718812     -1.199626     -0.803238
  H       0.190714     -2.114710     -0.661037
  H       0.933768     -1.392232      0.792310
  H       0.164820      2.226838     -0.225098
  H       1.706292      1.371606     -0.517332
  H       0.895058      1.237375      1.070717
13
Coordinates from ORCA-job orca3 E -157.545300911548
  C      -0.053140      0.061685     -0.513248
  C      -1.419180     -0.013397      0.091554
  C       0.743511     -1.234177     -0.284320
  C       0.722896      1.293804     -0.019941
  H      -0.171625      0.175138     -1.617528
  H      -1.968441     -0.962353      0.115516
  H      -1.958781      0.897777      0.375781
  H       1.718752     -1.198570     -0.802202
  H       0.191823     -2.114853     -0.660637
  H       0.933926     -1.391380      0.793554
  H       0.162796      2.225845     -0.219823
  H       1.703704      1.373020     -0.522141
  H       0.901098      1.233440      1.069811
13
Coordinates from ORCA-job orca3 E -157.545302137016
  C      -0.053678      0.061688     -0.513064
  C      -1.419353     -0.013192      0.092335
  C       0.743230     -1.234191     -0.283883
  C       0.722923      1.293436     -0.020194
  H      -0.171675      0.175167     -1.617406
  H      -1.967622     -0.962663      0.117319
  H      -1.958998      0.898671      0.374089
  H       1.719614     -1.196907     -0.799541
  H       0.193433     -2.114569     -0.663631
  H       0.931087     -1.392424      0.794238
  H       0.162392      2.225556     -0.218749
  H       1.702739      1.373111     -0.524294
  H       0.903249      1.232295      1.069158
13
Coordinates from ORCA-job orca3 E -157.545302605365
  C      -0.054015      0.061704     -0.513012
  C      -1.419346     -0.013147      0.093086
  C       0.742925     -1.234287     -0.283964
  C       0.723032      1.293423     -0.020473
  H      -0.172055      0.175245     -1.617333
  H      -1.966333     -0.963258      0.120478
  H      -1.959242      0.899136      0.372915
  H       1.720601     -1.195388     -0.797074
  H       0.194778     -2.114154     -0.667241
  H       0.927916     -1.394173      0.794380
  H       0.162815      2.225671     -0.219322
  H       1.702705      1.372648     -0.524919
  H       0.903560      1.232560      1.068856
