! UKS B3LYP def2-SV(P) def2/J D3BJ Opt
%scf Convergence VeryTight
SmearTemp 2000
maxiter 500
end
*xyz 0 2
C -0.013801 0.075577 0.399739
C -0.348355 1.386235 -0.271444
C 1.360581 -0.419639 0.068919
C -1.012493 -0.978134 -0.044105
H -0.1868 0.210216 1.494906
H 0.184781 2.224524 0.242874
H -0.107453 1.367219 -1.359916
H 1.359594 -1.460325 -0.340495
H 1.93323 -0.481087 1.029512
H 1.920686 0.247782 -0.614047
H -0.586168 -1.454504 -0.942256
H -1.091176 -1.764691 0.733695
H -1.960313 -0.467155 -0.259917
*
