13
Coordinates from ORCA-job orca1 E -157.514844506084
  C      -0.058653      0.008836      0.382777
  C       1.433147      0.008372      0.174170
  C      -0.698141     -1.228168     -0.179633
  C      -0.727010      1.227936     -0.231001
  H      -0.228406      0.110387      1.483170
  H       1.721143      0.922911     -0.371975
  H       2.007738     -0.011055      1.115200
  H      -1.438439     -1.031604     -0.969732
  H      -1.230175     -1.724483      0.642428
  H       0.105594     -1.861341     -0.634424
  H      -1.765417      1.211095      0.135288
  H      -0.152630      2.100541      0.173099
  H      -0.705799      1.158443     -1.324284
13
Coordinates from ORCA-job orca1 E -157.528672009140
  C      -0.063781      0.021742      0.392336
  C       1.446830      0.050123      0.197906
  C      -0.699458     -1.272746     -0.169480
  C      -0.740212      1.271186     -0.220244
  H      -0.245945      0.095233      1.484438
  H       1.808506      0.903999     -0.404778
  H       2.065712     -0.050754      1.105396
  H      -1.440143     -1.077570     -0.965074
  H      -1.233243     -1.807097      0.635654
  H       0.081751     -1.916521     -0.614221
  H      -1.795509      1.273626      0.104198
  H      -0.222802      2.168818      0.170279
  H      -0.698754      1.231831     -1.321327
13
Coordinates from ORCA-job orca1 E -157.534099059696
  C      -0.067332      0.038017      0.404621
  C       1.437881      0.088988      0.214679
  C      -0.690050     -1.282284     -0.155472
  C      -0.748863      1.286646     -0.209468
  H      -0.260688      0.077023      1.492169
  H       1.845811      0.871752     -0.445915
  H       2.087300     -0.109439      1.080495
  H      -1.425213     -1.075495     -0.955843
  H      -1.221659     -1.845632      0.632274
  H       0.082896     -1.936407     -0.588902
  H      -1.819280      1.298561      0.066409
  H      -0.282797      2.209491      0.172884
  H      -0.675054      1.270648     -1.312850
13
Coordinates from ORCA-job orca1 E -157.536616296268
  C      -0.067720      0.056720      0.416007
  C       1.425983      0.122622      0.227834
  C      -0.678345     -1.275437     -0.143442
  C      -0.757712      1.289730     -0.200123
  H      -0.269609      0.069760      1.503445
  H       1.857368      0.838037     -0.486281
  H       2.092920     -0.178783      1.046368
  H      -1.402347     -1.062665     -0.952031
  H      -1.212599     -1.851024      0.633757
  H       0.096397     -1.939530     -0.561817
  H      -1.840570      1.294647      0.026084
  H      -0.335711      2.233368      0.186859
  H      -0.645103      1.294424     -1.301578
13
Coordinates from ORCA-job orca1 E -157.537924988724
  C      -0.066405      0.074910      0.425938
  C       1.418300      0.151185      0.239206
  C      -0.666288     -1.262832     -0.133780
  C      -0.768328      1.289679     -0.192407
  H      -0.273244      0.074384      1.513878
  H       1.856474      0.809693     -0.520713
  H       2.092549     -0.255277      1.002083
  H      -1.370300     -1.053912     -0.960017
  H      -1.214972     -1.832531      0.637623
  H       0.116138     -1.935432     -0.526239
  H      -1.859509      1.273849     -0.010481
  H      -0.383753      2.244482      0.209484
  H      -0.617708      1.313672     -1.289492
13
Coordinates from ORCA-job orca1 E -157.538767836823
  C      -0.065527      0.090135      0.434042
  C       1.414902      0.175915      0.249349
  C      -0.653663     -1.252310     -0.126306
  C      -0.780115      1.292572     -0.185406
  H      -0.274399      0.085767      1.522552
  H       1.848745      0.787413     -0.549890
  H       2.088572     -0.330156      0.949193
  H      -1.324256     -1.055853     -0.982346
  H      -1.233086     -1.800994      0.637743
  H       0.140346     -1.935261     -0.476877
  H      -1.875060      1.251228     -0.034676
  H      -0.422646      2.250564      0.235427
  H      -0.600861      1.332850     -1.277722
13
Coordinates from ORCA-job orca1 E -157.539422986588
  C      -0.065502      0.101131      0.440382
  C       1.414338      0.197160      0.257099
  C      -0.640616     -1.245666     -0.120941
  C      -0.791890      1.298508     -0.177752
  H      -0.274205      0.098606      1.529375
  H       1.837218      0.768136     -0.577396
  H       2.083386     -0.392222      0.893408
  H      -1.261458     -1.066234     -1.017238
  H      -1.268034     -1.762013      0.627584
  H       0.164415     -1.943250     -0.412330
  H      -1.887185      1.232917     -0.041888
  H      -0.450573      2.254099      0.261391
  H      -0.596943      1.350698     -1.266611
13
Coordinates from ORCA-job orca1 E -157.539986995423
  C      -0.065632      0.107256      0.444740
  C       1.415536      0.213897      0.259453
  C      -0.628840     -1.242017     -0.117512
  C      -0.802858      1.304793     -0.168702
  H      -0.271500      0.108659      1.534278
  H       1.825622      0.751018     -0.604648
  H       2.081965     -0.432636      0.842261
  H      -1.183823     -1.080229     -1.059453
  H      -1.318356     -1.717791      0.602877
  H       0.180981     -1.960151     -0.335003
  H      -1.896517      1.219008     -0.032684
  H      -0.468858      2.255153      0.285659
  H      -0.604766      1.364910     -1.256182
13
Coordinates from ORCA-job orca1 E -157.540587002970
  C      -0.065638      0.108365      0.446730
  C       1.417387      0.224582      0.254277
  C      -0.620442     -1.240446     -0.115814
  C      -0.812761      1.309398     -0.158724
  H      -0.265413      0.113790      1.537131
  H       1.818074      0.738453     -0.629871
  H       2.089018     -0.449019      0.801633
  H      -1.098085     -1.095598     -1.102217
  H      -1.378470     -1.670314      0.563694
  H       0.184133     -1.983780     -0.251051
  H      -1.903574      1.208680     -0.010534
  H      -0.479120      2.253573      0.306655
  H      -0.622158      1.374186     -1.246824
13
Coordinates from ORCA-job orca1 E -157.541294890103
  C      -0.065714      0.104649      0.446251
  C       1.418668      0.228474      0.241347
  C      -0.616646     -1.240716     -0.115129
  C      -0.821084      1.311624     -0.148836
  H      -0.256375      0.113265      1.537816
  H       1.817299      0.733980     -0.650181
  H       2.106219     -0.443685      0.772864
  H      -1.011942     -1.111675     -1.139854
  H      -1.441467     -1.622936      0.513530
  H       0.171345     -2.011588     -0.166926
  H      -1.908260      1.201911      0.020186
  H      -0.482978      2.249876      0.323009
  H      -0.646111      1.378692     -1.238994
13
Coordinates from ORCA-job orca1 E -157.542088094990
  C      -0.064233      0.098617      0.444786
  C       1.417991      0.228152      0.223034
  C      -0.616013     -1.241281     -0.113898
  C      -0.826618      1.310072     -0.138751
  H      -0.243730      0.105737      1.537962
  H       1.818519      0.738645     -0.665091
  H       2.126457     -0.426661      0.749373
  H      -0.928605     -1.126136     -1.168766
  H      -1.500026     -1.578368      0.458005
  H       0.144446     -2.040681     -0.085293
  H      -1.910654      1.198039      0.050789
  H      -0.485259      2.245874      0.334159
  H      -0.669323      1.379861     -1.231225
13
Coordinates from ORCA-job orca1 E -157.542940225855
  C      -0.059727      0.093668      0.443821
  C       1.415766      0.226995      0.202741
  C      -0.615820     -1.240101     -0.112098
  C      -0.829864      1.304233     -0.127337
  H      -0.226815      0.092093      1.539319
  H       1.815365      0.749605     -0.677699
  H       2.141655     -0.410504      0.725537
  H      -0.846210     -1.139221     -1.189563
  H      -1.550129     -1.535087      0.400499
  H       0.108324     -2.066753     -0.005536
  H      -1.912208      1.195328      0.075772
  H      -0.489715      2.242834      0.341292
  H      -0.687673      1.378780     -1.221662
13
Coordinates from ORCA-job orca1 E -157.543775748804
  C      -0.052769      0.092055      0.443591
  C       1.414460      0.226955      0.183553
  C      -0.614056     -1.236588     -0.111843
  C      -0.833296      1.296104     -0.113921
  H      -0.206753      0.076606      1.541895
  H       1.804958      0.761916     -0.692430
  H       2.148664     -0.403500      0.702008
  H      -0.762672     -1.156545     -1.205405
  H      -1.590998     -1.488276      0.341315
  H       0.068937     -2.085000      0.072445
  H      -1.914734      1.191263      0.096178
  H      -0.495686      2.240366      0.347311
  H      -0.703104      1.376511     -1.209614
13
Coordinates from ORCA-job orca1 E -157.544482727627
  C      -0.045892      0.092740      0.443243
  C       1.415978      0.227836      0.166369
  C      -0.610525     -1.233022     -0.114533
  C      -0.838732      1.289706     -0.099371
  H      -0.186657      0.063037      1.543937
  H       1.789173      0.772566     -0.710647
  H       2.150548     -0.403985      0.681773
  H      -0.678155     -1.184185     -1.217758
  H      -1.624122     -1.436518      0.278765
  H       0.029277     -2.094888      0.147859
  H      -1.918547      1.185551      0.117050
  H      -0.499329      2.237850      0.354740
  H      -0.720066      1.375183     -1.196343
13
Coordinates from ORCA-job orca1 E -157.544903400469
  C      -0.041653      0.092653      0.442252
  C       1.418785      0.229228      0.150313
  C      -0.606258     -1.232515     -0.118732
  C      -0.845510      1.288113     -0.085305
  H      -0.169838      0.052453      1.544232
  H       1.771958      0.780765     -0.730656
  H       2.152994     -0.403709      0.664189
  H      -0.592762     -1.222459     -1.224760
  H      -1.651570     -1.385065      0.209685
  H      -0.012744     -2.100539      0.220489
  H      -1.922022      1.181002      0.143082
  H      -0.497452      2.235543      0.364065
  H      -0.740975      1.376399     -1.183772
13
Coordinates from ORCA-job orca1 E -157.544970287005
  C      -0.038046      0.088963      0.438849
  C       1.419391      0.222011      0.132950
  C      -0.608482     -1.235631     -0.124308
  C      -0.844936      1.284495     -0.076796
  H      -0.155292      0.035143      1.541433
  H       1.759665      0.800967     -0.734142
  H       2.156449     -0.382430      0.674113
  H      -0.556034     -1.246139     -1.228969
  H      -1.666525     -1.361977      0.173742
  H      -0.043466     -2.106485      0.253629
  H      -1.919156      1.188217      0.164890
  H      -0.483305      2.234445      0.357184
  H      -0.757311      1.370291     -1.177491
13
Coordinates from ORCA-job orca1 E -157.544863195195
  C      -0.041387      0.089655      0.441082
  C       1.419738      0.236140      0.131344
  C      -0.599930     -1.237350     -0.123089
  C      -0.854688      1.294244     -0.067329
  H      -0.155195      0.044856      1.543418
  H       1.749261      0.783578     -0.761558
  H       2.161280     -0.396542      0.634867
  H      -0.467655     -1.285606     -1.220304
  H      -1.681108     -1.325247      0.095880
  H      -0.081459     -2.106854      0.317487
  H      -1.923336      1.180086      0.191173
  H      -0.486258      2.233423      0.380065
  H      -0.776310      1.381487     -1.167952
13
Coordinates from ORCA-job orca1 E -157.545006256046
  C      -0.040331      0.089319      0.440023
  C       1.418920      0.228167      0.135460
  C      -0.605786     -1.236860     -0.123429
  C      -0.847602      1.289244     -0.075085
  H      -0.158612      0.041093      1.542312
  H       1.757579      0.792041     -0.742778
  H       2.158036     -0.387513      0.661898
  H      -0.532767     -1.255888     -1.226869
  H      -1.670479     -1.356570      0.153248
  H      -0.050273     -2.107274      0.268576
  H      -1.919959      1.187155      0.173057
  H      -0.483074      2.234763      0.364375
  H      -0.762699      1.374193     -1.175703
13
Coordinates from ORCA-job orca1 E -157.545007460246
  C      -0.040551      0.089178      0.439996
  C       1.418787      0.227798      0.136189
  C      -0.606123     -1.236935     -0.123677
  C      -0.847086      1.289318     -0.075670
  H      -0.159591      0.040955      1.542203
  H       1.757677      0.791469     -0.742041
  H       2.157789     -0.385971      0.664926
  H      -0.537045     -1.253658     -1.227465
  H      -1.669511     -1.359687      0.156611
  H      -0.047670     -2.107205      0.264452
  H      -1.919377      1.188574      0.173365
  H      -0.481396      2.234894      0.362638
  H      -0.762952      1.373140     -1.176445
13
Coordinates from ORCA-job orca1 E -157.545007739344
  C      -0.040761      0.088992      0.440031
  C       1.418699      0.227713      0.136638
  C      -0.606159     -1.236960     -0.124125
  C      -0.846887      1.289534     -0.075723
  H      -0.160369      0.040620      1.542142
  H       1.757055      0.790004     -0.742655
  H       2.157789     -0.383995      0.667567
  H      -0.537739     -1.252701     -1.228002
  H      -1.669237     -1.361155      0.156692
  H      -0.046761     -2.107201      0.262719
  H      -1.918826      1.190038      0.175333
  H      -0.479344      2.234996      0.361197
  H      -0.764508      1.371984     -1.176732
