! UKS B3LYP def2-SV(P) def2/J D3BJ Opt
%scf Convergence VeryTight
SmearTemp 2000
maxiter 500
end
*xyz 0 1
C -2.540029 0.117701 0.60488
C -1.733502 0.210777 -0.641145
C -0.54708 -0.677806 -0.71816
C 0.504362 -0.428732 0.321548
C 1.38086 0.767354 0.006752
C 2.851043 0.413004 0.202311
H -1.994268 -0.188211 1.505099
H -3.422452 -0.566955 0.528956
H -2.981078 1.125505 0.793476
H -1.390648 1.252031 -0.865209
H -2.405122 -0.063372 -1.493413
H -0.063284 -0.501521 -1.711617
H -0.877434 -1.725373 -0.611731
H 0.107924 -0.349445 1.347258
H 1.182291 -1.320565 0.304745
H 1.108567 1.597272 0.707087
H 1.179617 1.145825 -1.020189
H 3.100747 0.683368 1.24213
H 3.043088 -0.66867 -0.013797
H 3.496399 1.010104 -0.488982
*
