14
Properties=species:S:1:pos:R:3 energy=-4305.170793189098 smiles=CCCC name=tbu pbc="F F F"
C        0.03069600       0.06965300      -0.44175400
C        0.45185000       1.35949400       0.27349000
C       -1.45514100      -0.23158400      -0.20908200
C        0.90864400      -1.11309400      -0.01417100
H        0.17739600       0.22319000      -1.52945600
H       -0.15705000       2.22077000      -0.05773100
H        1.51293300       1.60104600       0.07822900
H        0.32554000       1.26018300       1.36923000
H       -1.65895700      -0.39250100       0.86714500
H       -2.09477500       0.60333000      -0.55025000
H       -1.77177300      -1.14248100      -0.74961500
H        0.79978400      -1.31163200       1.06978800
H        1.97824600      -0.91471300      -0.21314700
H        0.63031300      -2.03683500      -0.55363800
