14
Properties=species:S:1:pos:R:3 energy=-4305.117114564319 name=nbu_bent smiles=CCCC pbc="F F F"
C       -1.56471000       0.38905900       0.01869600
C       -0.52698600      -0.48523200      -0.69231500
C        0.73718300      -0.76797900       0.13256200
C        1.57006700       0.47439400       0.46151200
H       -1.17222700       1.39772500       0.23887900
H       -1.87409000      -0.06377700       0.97936500
H       -2.47182300       0.51556800      -0.59925600
H       -0.23620000      -0.00744500      -1.64871500
H       -0.99458800      -1.44996500      -0.96583000
H        0.44927900      -1.27724300       1.07374000
H        1.36792000      -1.48869800      -0.42213300
H        2.49318900       0.20439800       1.00532900
H        1.01170400       1.18915100       1.09278300
H        1.86948000       1.00824500      -0.46035200
14
Properties=species:S:1:pos:R:3 energy=-4305.138647313924 name=nbu_straight smiles=CCCC pbc="F F F"
C       -1.88936300      -0.17797700      -0.17860600
C       -0.63794800      -0.21639300       0.70048700
C        0.65266800       0.09868100      -0.06332200
C        1.90412700       0.05992400       0.81570000
H       -2.80073200      -0.40973600       0.40173900
H       -2.02723100       0.82061200      -0.63385700
H       -1.82078700      -0.91118800      -1.00406500
H       -0.74966500       0.50252800       1.53606500
H       -0.54603000      -1.21561300       1.17012800
H        0.76424500      -0.62004800      -0.89908300
H        0.56086000       1.09803100      -0.53270700
H        1.83559200       0.79284700       1.64141700
H        2.04200400      -0.93882500       1.27059100
H        2.81546800       0.29188700       0.23539300
