5
Coordinates from ORCA-job orca0 E -114.892644984373
  C      -0.369836      0.002581      0.002796
  O       0.897985     -0.574835     -0.119094
  H      -0.674091     -0.119380      1.050780
  H      -0.314182      1.066474     -0.315483
  H      -1.083042     -0.524563     -0.642972
5
Coordinates from ORCA-job orca0 E -114.894504913129
  C      -0.353158      0.006191     -0.011557
  O       0.894306     -0.586162     -0.112225
  H      -0.669873     -0.112573      1.047244
  H      -0.325749      1.078652     -0.302122
  H      -1.088692     -0.535831     -0.645314
5
Coordinates from ORCA-job orca0 E -114.895516728727
  C      -0.330816      0.006097     -0.033522
  O       0.885741     -0.595923     -0.101449
  H      -0.665077     -0.104841      1.030702
  H      -0.339180      1.090544     -0.282700
  H      -1.093834     -0.545601     -0.637004
5
Coordinates from ORCA-job orca0 E -114.895584316028
  C      -0.328470      0.002619     -0.037190
  O       0.887657     -0.593718     -0.099383
  H      -0.665673     -0.104123      1.027520
  H      -0.338886      1.089745     -0.280546
  H      -1.097794     -0.544246     -0.634374
5
Coordinates from ORCA-job orca0 E -114.895640365510
  C      -0.327751     -0.004550     -0.041828
  O       0.892501     -0.587503     -0.095659
  H      -0.665342     -0.102493      1.024153
  H      -0.336380      1.085615     -0.277795
  H      -1.106194     -0.540792     -0.632844
5
Coordinates from ORCA-job orca0 E -114.895654087230
  C      -0.329374     -0.006934     -0.042280
  O       0.893744     -0.585179     -0.094598
  H      -0.663786     -0.101095      1.024820
  H      -0.335137      1.083497     -0.276932
  H      -1.108613     -0.540013     -0.634983
5
Coordinates from ORCA-job orca0 E -114.895666455888
  C      -0.332669     -0.009937     -0.042631
  O       0.894350     -0.582759     -0.093171
  H      -0.660061     -0.097944      1.026866
  H      -0.333923      1.080800     -0.274994
  H      -1.110864     -0.539884     -0.640043
5
Coordinates from ORCA-job orca0 E -114.895667936519
  C      -0.333285     -0.010209     -0.042766
  O       0.893891     -0.583077     -0.093091
  H      -0.659083     -0.096895      1.027406
  H      -0.334244      1.080777     -0.274229
  H      -1.110445     -0.540319     -0.641293
5
Coordinates from ORCA-job orca0 E -114.895668309183
  C      -0.333332     -0.010217     -0.042959
  O       0.893576     -0.583548     -0.093128
  H      -0.658763     -0.096355      1.027467
  H      -0.334651      1.081008     -0.273738
  H      -1.109996     -0.540610     -0.641614
