5
Coordinates from ORCA-job orca2 E -114.892459012000
  C      -0.386213      0.012156     -0.004660
  O       0.928807      0.377776     -0.299380
  H      -0.475298     -0.616690      0.897614
  H      -0.738431     -0.586934     -0.859456
  H      -0.929863      0.978998      0.111931
5
Coordinates from ORCA-job orca2 E -114.894186048855
  C      -0.369233      0.012597     -0.003237
  O       0.934131      0.373523     -0.294339
  H      -0.470880     -0.611391      0.911851
  H      -0.754158     -0.570132     -0.870097
  H      -0.940858      0.960709      0.101871
5
Coordinates from ORCA-job orca2 E -114.895362374650
  C      -0.339344      0.008556     -0.000099
  O       0.939219      0.364124     -0.286992
  H      -0.464145     -0.601784      0.925856
  H      -0.775586     -0.536352     -0.875588
  H      -0.961142      0.930762      0.082872
5
Coordinates from ORCA-job orca2 E -114.895385253452
  C      -0.336274      0.007137      0.000431
  O       0.939996      0.364786     -0.286844
  H      -0.464935     -0.602016      0.924959
  H      -0.777391     -0.534584     -0.873665
  H      -0.962393      0.929983      0.081169
5
Coordinates from ORCA-job orca2 E -114.895392849092
  C      -0.334952      0.005891      0.000316
  O       0.940035      0.366712     -0.286496
  H      -0.465998     -0.602537      0.924073
  H      -0.778890     -0.534821     -0.872240
  H      -0.961193      0.930061      0.080396
5
Coordinates from ORCA-job orca2 E -114.895405040952
  C      -0.333432      0.003372     -0.000798
  O       0.939637      0.370778     -0.285016
  H      -0.467399     -0.602912      0.923264
  H      -0.782150     -0.536053     -0.870964
  H      -0.957654      0.930121      0.079563
5
Coordinates from ORCA-job orca2 E -114.895367205993
  C      -0.324132     -0.015734     -0.011019
  O       0.935271      0.399653     -0.272433
  H      -0.475585     -0.602854      0.919202
  H      -0.805945     -0.545311     -0.864960
  H      -0.930606      0.929552      0.075259
5
Coordinates from ORCA-job orca2 E -114.895442802229
  C      -0.332148     -0.001181     -0.004131
  O       0.938437      0.377995     -0.281429
  H      -0.469048     -0.602506      0.922297
  H      -0.787900     -0.539731     -0.870254
  H      -0.950338      0.930729      0.079566
5
Coordinates from ORCA-job orca2 E -114.895479099164
  C      -0.331392     -0.004514     -0.006910
  O       0.937577      0.382766     -0.278531
  H      -0.469803     -0.601517      0.921902
  H      -0.792045     -0.542222     -0.870365
  H      -0.945335      0.930793      0.079953
5
Coordinates from ORCA-job orca2 E -114.895119988739
  C      -0.321646     -0.026305     -0.018266
  O       0.929850      0.416482     -0.263309
  H      -0.477811     -0.602163      0.920314
  H      -0.819855     -0.551650     -0.865959
  H      -0.911536      0.928942      0.073269
5
Coordinates from ORCA-job orca2 E -114.895536825216
  C      -0.332386     -0.006140     -0.010654
  O       0.937289      0.383379     -0.274674
  H      -0.467124     -0.597637      0.924110
  H      -0.795258     -0.543326     -0.874448
  H      -0.943519      0.929029      0.081715
5
Coordinates from ORCA-job orca2 E -114.895543198459
  C      -0.332049     -0.007646     -0.010865
  O       0.936648      0.386207     -0.274178
  H      -0.468165     -0.598592      0.923678
  H      -0.796735     -0.544300     -0.873547
  H      -0.940697      0.929637      0.080961
5
Coordinates from ORCA-job orca2 E -114.895544017339
  C      -0.332378     -0.006955     -0.010969
  O       0.937049      0.384497     -0.274174
  H      -0.467253     -0.597628      0.924199
  H      -0.796106     -0.543580     -0.874476
  H      -0.942310      0.928972      0.081469
5
Coordinates from ORCA-job orca2 E -114.895544318719
  C      -0.332631     -0.006717     -0.011088
  O       0.937293      0.383563     -0.274108
  H      -0.466676     -0.596949      0.924569
  H      -0.795805     -0.543119     -0.875108
  H      -0.943179      0.928527      0.081785
5
Coordinates from ORCA-job orca2 E -114.895544455161
  C      -0.332811     -0.006667     -0.011171
  O       0.937436      0.383009     -0.274071
  H      -0.466320     -0.596470      0.924835
  H      -0.795614     -0.542794     -0.875539
  H      -0.943690      0.928228      0.081995
5
Coordinates from ORCA-job orca2 E -114.895544461782
  C      -0.332855     -0.006699     -0.011182
  O       0.937465      0.382868     -0.274074
  H      -0.466230     -0.596323      0.924932
  H      -0.795556     -0.542668     -0.875670
  H      -0.943822      0.928128      0.082043
5
Coordinates from ORCA-job orca2 E -114.895544465977
  C      -0.332858     -0.006727     -0.011172
  O       0.937459      0.382864     -0.274085
  H      -0.466227     -0.596306      0.924957
  H      -0.795546     -0.542636     -0.875689
  H      -0.943826      0.928112      0.082038
5
Coordinates from ORCA-job orca2 E -114.895545032739
  C      -0.332977     -0.007307     -0.011072
  O       0.937326      0.382727     -0.274214
  H      -0.466083     -0.595857      0.925511
  H      -0.795361     -0.542044     -0.876220
  H      -0.943904      0.927787      0.082045
5
Coordinates from ORCA-job orca2 E -114.895545049677
  C      -0.332920     -0.007358     -0.011052
  O       0.937278      0.382822     -0.274196
  H      -0.466113     -0.595903      0.925527
  H      -0.795437     -0.542018     -0.876194
  H      -0.943807      0.927763      0.081964
5
Coordinates from ORCA-job orca2 E -114.895545106318
  C      -0.332851     -0.007428     -0.011023
  O       0.937225      0.382957     -0.274168
  H      -0.466150     -0.595980      0.925543
  H      -0.795542     -0.541997     -0.876153
  H      -0.943679      0.927755      0.081851
5
Coordinates from ORCA-job orca2 E -114.895545958040
  C      -0.333454     -0.006964     -0.011373
  O       0.937530      0.382050     -0.274316
  H      -0.465902     -0.595299      0.925436
  H      -0.794750     -0.542319     -0.876556
  H      -0.944422      0.927839      0.082858
5
Coordinates from ORCA-job orca2 E -114.895546009802
  C      -0.333307     -0.007079     -0.011319
  O       0.937474      0.382222     -0.274268
  H      -0.465940     -0.595390      0.925480
  H      -0.794936     -0.542222     -0.876504
  H      -0.944290      0.927775      0.082660
5
Coordinates from ORCA-job orca2 E -114.895546072445
  C      -0.333162     -0.007184     -0.011284
  O       0.937442      0.382374     -0.274212
  H      -0.465970     -0.595461      0.925514
  H      -0.795121     -0.542134     -0.876454
  H      -0.944186      0.927711      0.082485
5
Coordinates from ORCA-job orca2 E -114.895546076809
  C      -0.333274     -0.007107     -0.011314
  O       0.937463      0.382259     -0.274257
  H      -0.465951     -0.595399      0.925488
  H      -0.794976     -0.542204     -0.876495
  H      -0.944261      0.927757      0.082627
5
Coordinates from ORCA-job orca2 E -114.895546079028
  C      -0.333255     -0.007119     -0.011311
  O       0.937462      0.382275     -0.274250
  H      -0.465956     -0.595406      0.925491
  H      -0.794998     -0.542193     -0.876489
  H      -0.944251      0.927748      0.082607
5
Coordinates from ORCA-job orca2 E -114.895546252828
  C      -0.332978     -0.007292     -0.011287
  O       0.937449      0.382519     -0.274134
  H      -0.466006     -0.595490      0.925536
  H      -0.795344     -0.542044     -0.876400
  H      -0.944119      0.927614      0.082334
5
Coordinates from ORCA-job orca2 E -114.895546284539
  C      -0.333232     -0.007149     -0.011318
  O       0.937452      0.382313     -0.274232
  H      -0.465963     -0.595405      0.925498
  H      -0.795038     -0.542189     -0.876488
  H      -0.944217      0.927736      0.082589
5
Coordinates from ORCA-job orca2 E -114.895546278912
  C      -0.333329     -0.007099     -0.011329
  O       0.937447      0.382241     -0.274272
  H      -0.465951     -0.595374      0.925486
  H      -0.794919     -0.542246     -0.876524
  H      -0.944246      0.927784      0.082688
5
Coordinates from ORCA-job orca2 E -114.895546276304
  C      -0.333434     -0.007048     -0.011340
  O       0.937435      0.382170     -0.274319
  H      -0.465945     -0.595343      0.925475
  H      -0.794788     -0.542313     -0.876563
  H      -0.944266      0.927841      0.082796
5
Coordinates from ORCA-job orca2 E -114.895546276260
  C      -0.333474     -0.007030     -0.011343
  O       0.937428      0.382146     -0.274340
  H      -0.465946     -0.595333      0.925472
  H      -0.794736     -0.542340     -0.876579
  H      -0.944270      0.927863      0.082838
5
Coordinates from ORCA-job orca2 E -114.895546536281
  C      -0.333097     -0.007213     -0.011349
  O       0.937494      0.382391     -0.274116
  H      -0.465931     -0.595406      0.925497
  H      -0.795253     -0.542111     -0.876445
  H      -0.944211      0.927645      0.082462
5
Coordinates from ORCA-job orca2 E -114.895546540173
  C      -0.333257     -0.007145     -0.011351
  O       0.937465      0.382291     -0.274206
  H      -0.465936     -0.595366      0.925488
  H      -0.795039     -0.542207     -0.876507
  H      -0.944231      0.927733      0.082624
5
Coordinates from ORCA-job orca2 E -114.895546538569
  C      -0.333371     -0.007098     -0.011354
  O       0.937442      0.382224     -0.274269
  H      -0.465941     -0.595340      0.925482
  H      -0.794889     -0.542279     -0.876550
  H      -0.944240      0.927798      0.082740
5
Coordinates from ORCA-job orca2 E -114.895546535548
  C      -0.333455     -0.007065     -0.011356
  O       0.937424      0.382179     -0.274315
  H      -0.465946     -0.595323      0.925477
  H      -0.794779     -0.542334     -0.876581
  H      -0.944242      0.927848      0.082824
5
Coordinates from ORCA-job orca2 E -114.895546488793
  C      -0.333512     -0.007043     -0.011357
  O       0.937410      0.382152     -0.274346
  H      -0.465950     -0.595314      0.925474
  H      -0.794706     -0.542372     -0.876602
  H      -0.944240      0.927884      0.082879
5
Coordinates from ORCA-job orca2 E -114.895547591303
  C      -0.332820     -0.007335     -0.011497
  O       0.937620      0.382552     -0.273831
  H      -0.465865     -0.595332      0.925478
  H      -0.795734     -0.542010     -0.876382
  H      -0.944199      0.927431      0.082281
5
Coordinates from ORCA-job orca2 E -114.895547629662
  C      -0.333009     -0.007351     -0.011431
  O       0.937496      0.382502     -0.273989
  H      -0.465909     -0.595324      0.925518
  H      -0.795447     -0.542081     -0.876471
  H      -0.944129      0.927560      0.082422
5
Coordinates from ORCA-job orca2 E -114.895547643333
  C      -0.333156     -0.007358     -0.011383
  O       0.937396      0.382474     -0.274106
  H      -0.465944     -0.595330      0.925552
  H      -0.795233     -0.542148     -0.876541
  H      -0.944062      0.927668      0.082527
5
Coordinates from ORCA-job orca2 E -114.895547655888
  C      -0.333309     -0.007358     -0.011341
  O       0.937302      0.382450     -0.274216
  H      -0.465974     -0.595342      0.925585
  H      -0.795026     -0.542226     -0.876610
  H      -0.943990      0.927782      0.082632
5
Coordinates from ORCA-job orca2 E -114.895547657380
  C      -0.333420     -0.007353     -0.011316
  O       0.937242      0.382433     -0.274283
  H      -0.465988     -0.595353      0.925604
  H      -0.794890     -0.542283     -0.876656
  H      -0.943941      0.927862      0.082701
5
Coordinates from ORCA-job orca2 E -114.895547657365
  C      -0.333515     -0.007345     -0.011298
  O       0.937196      0.382419     -0.274332
  H      -0.465992     -0.595364      0.925615
  H      -0.794785     -0.542333     -0.876690
  H      -0.943903      0.927930      0.082754
5
Coordinates from ORCA-job orca2 E -114.895547657044
  C      -0.333538     -0.007343     -0.011294
  O       0.937187      0.382414     -0.274340
  H      -0.465989     -0.595368      0.925616
  H      -0.794763     -0.542344     -0.876697
  H      -0.943895      0.927947      0.082763
5
Coordinates from ORCA-job orca2 E -114.895547839265
  C      -0.333179     -0.007397     -0.011376
  O       0.937329      0.382497     -0.274205
  H      -0.466039     -0.595297      0.925600
  H      -0.795114     -0.542190     -0.876601
  H      -0.943994      0.927693      0.082631
5
Coordinates from ORCA-job orca2 E -114.895547856232
  C      -0.333414     -0.007368     -0.011330
  O       0.937234      0.382451     -0.274282
  H      -0.466003     -0.595339      0.925608
  H      -0.794896     -0.542296     -0.876665
  H      -0.943920      0.927858      0.082718
5
Coordinates from ORCA-job orca2 E -114.895547859008
  C      -0.333573     -0.007348     -0.011303
  O       0.937170      0.382424     -0.274330
  H      -0.465978     -0.595369      0.925611
  H      -0.794752     -0.542375     -0.876707
  H      -0.943865      0.927974      0.082778
5
Coordinates from ORCA-job orca2 E -114.895547859394
  C      -0.333693     -0.007331     -0.011284
  O       0.937122      0.382406     -0.274363
  H      -0.465959     -0.595394      0.925611
  H      -0.794648     -0.542437     -0.876736
  H      -0.943820      0.928063      0.082822
5
Coordinates from ORCA-job orca2 E -114.895547858853
  C      -0.333709     -0.007329     -0.011282
  O       0.937115      0.382403     -0.274367
  H      -0.465955     -0.595398      0.925611
  H      -0.794635     -0.542445     -0.876739
  H      -0.943815      0.928075      0.082827
5
Coordinates from ORCA-job orca2 E -114.895547978807
  C      -0.333413     -0.007376     -0.011342
  O       0.937235      0.382453     -0.274286
  H      -0.466014     -0.595319      0.925614
  H      -0.794891     -0.542303     -0.876679
  H      -0.943915      0.927851      0.082741
5
Coordinates from ORCA-job orca2 E -114.895547981593
  C      -0.333557     -0.007358     -0.011314
  O       0.937175      0.382434     -0.274323
  H      -0.465985     -0.595357      0.925612
  H      -0.794770     -0.542374     -0.876709
  H      -0.943860      0.927961      0.082782
5
Coordinates from ORCA-job orca2 E -114.895547581843
  C      -0.333586     -0.007354     -0.011309
  O       0.937163      0.382430     -0.274329
  H      -0.465979     -0.595364      0.925611
  H      -0.794746     -0.542389     -0.876714
  H      -0.943849      0.927983      0.082790
