5
Coordinates from ORCA-job orca4 E -114.893605547703
  C      -0.375749     -0.000928     -0.004026
  O       0.895479      0.522750     -0.115035
  H      -0.528250     -0.429413      1.002801
  H      -0.517725     -0.791980     -0.750919
  H      -1.080048      0.839622     -0.171831
5
Coordinates from ORCA-job orca4 E -114.894963612676
  C      -0.358683     -0.008673     -0.000833
  O       0.898354      0.538133     -0.115930
  H      -0.540076     -0.423982      1.016225
  H      -0.533828     -0.795368     -0.767683
  H      -1.072060      0.829942     -0.170789
5
Coordinates from ORCA-job orca4 E -114.895620377862
  C      -0.335544     -0.020858      0.002306
  O       0.895068      0.552116     -0.115931
  H      -0.552293     -0.414913      1.023627
  H      -0.551979     -0.790372     -0.778999
  H      -1.061545      0.814078     -0.170013
5
Coordinates from ORCA-job orca4 E -114.895661187255
  C      -0.331855     -0.021452      0.002293
  O       0.893309      0.551347     -0.115700
  H      -0.552877     -0.414072      1.022282
  H      -0.552929     -0.788154     -0.777693
  H      -1.061941      0.812381     -0.170191
5
Coordinates from ORCA-job orca4 E -114.895668794633
  C      -0.330789     -0.020396      0.001927
  O       0.892980      0.549871     -0.115579
  H      -0.552695     -0.414241      1.020994
  H      -0.552455     -0.787335     -0.776163
  H      -1.063333      0.812152     -0.170190
5
Coordinates from ORCA-job orca4 E -114.895669439009
  C      -0.330641     -0.019823      0.001764
  O       0.893335      0.549536     -0.115563
  H      -0.552757     -0.414312      1.020717
  H      -0.552359     -0.787381     -0.775883
  H      -1.063871      0.812030     -0.170045
5
Coordinates from ORCA-job orca4 E -114.895669543543
  C      -0.330557     -0.019512      0.001672
  O       0.893674      0.549441     -0.115558
  H      -0.552867     -0.414292      1.020616
  H      -0.552378     -0.787469     -0.775837
  H      -1.064164      0.811883     -0.169903
