! UKS B3LYP def2-SV(P) def2/J D3BJ Opt
%scf Convergence VeryTight
SmearTemp 2000
maxiter 500
end
*xyz 0 2
C 0.072221 -0.032482 -0.346561
C 0.505744 1.301146 0.180439
C -1.411939 -0.161291 -0.122208
C 0.859189 -1.191009 0.177817
H -0.337583 1.906506 0.599227
H 0.923668 1.947962 -0.632595
H 1.273966 1.24313 0.964704
H -1.690969 -0.415783 0.909117
H -1.839215 0.850244 -0.33206
H -1.879757 -0.839576 -0.877447
H 0.274192 -1.913705 0.771976
H 1.724278 -0.894638 0.817025
H 1.313489 -1.79121 -0.651259
*
