13
Coordinates from ORCA-job orca1 E -157.527116947570
  C      -0.058653      0.008836      0.382777
  C       1.433147      0.008372      0.174170
  C      -0.698141     -1.228168     -0.179633
  C      -0.727010      1.227936     -0.231001
  H       1.721143      0.922911     -0.371975
  H       1.737048     -0.891871     -0.395083
  H       2.007738     -0.011055      1.115200
  H      -1.438439     -1.031604     -0.969732
  H      -1.230175     -1.724483      0.642428
  H       0.105594     -1.861341     -0.634424
  H      -1.765417      1.211095      0.135288
  H      -0.152630      2.100541      0.173099
  H      -0.705799      1.158443     -1.324284
13
Coordinates from ORCA-job orca1 E -157.539889710752
  C      -0.042673     -0.006169      0.324448
  C       1.474147      0.022132      0.170022
  C      -0.723433     -1.277235     -0.184034
  C      -0.724799      1.249997     -0.223460
  H       1.784761      0.945862     -0.351980
  H       1.832928     -0.856387     -0.394669
  H       2.013212      0.004893      1.138202
  H      -1.487998     -1.078422     -0.957112
  H      -1.249669     -1.773062      0.655205
  H       0.022806     -1.957557     -0.635402
  H      -1.771679      1.252728      0.130149
  H      -0.185504      2.133683      0.173061
  H      -0.713693      1.229150     -1.327599
13
Coordinates from ORCA-job orca1 E -157.546371250586
  C      -0.032484     -0.010264      0.257430
  C       1.485462      0.021691      0.158990
  C      -0.723726     -1.296894     -0.183940
  C      -0.725548      1.260381     -0.213754
  H       1.829626      0.943624     -0.345990
  H       1.877067     -0.851608     -0.396373
  H       1.981944      0.003536      1.151584
  H      -1.501709     -1.102545     -0.948017
  H      -1.239668     -1.789175      0.666526
  H      -0.004352     -2.015488     -0.615198
  H      -1.777072      1.277516      0.129455
  H      -0.215089      2.155638      0.180157
  H      -0.726044      1.293200     -1.324040
13
Coordinates from ORCA-job orca1 E -157.550020697315
  C      -0.021589     -0.011834      0.187577
  C       1.489542      0.019215      0.147112
  C      -0.720512     -1.300765     -0.185329
  C      -0.726063      1.258471     -0.209558
  H       1.865102      0.938828     -0.341114
  H       1.908421     -0.850825     -0.394391
  H       1.941828      0.000377      1.161594
  H      -1.509495     -1.119268     -0.942149
  H      -1.226477     -1.777340      0.680926
  H      -0.019452     -2.052162     -0.593310
  H      -1.778370      1.276208      0.132335
  H      -0.231039      2.159859      0.193384
  H      -0.743489      1.348848     -1.320248
13
Coordinates from ORCA-job orca1 E -157.552113444888
  C      -0.009730     -0.011632      0.117614
  C       1.492969      0.015278      0.135754
  C      -0.716642     -1.299990     -0.188769
  C      -0.728438      1.257252     -0.211141
  H       1.895871      0.932337     -0.336085
  H       1.933287     -0.854850     -0.389243
  H       1.903326     -0.004417      1.168945
  H      -1.514635     -1.143939     -0.942170
  H      -1.215274     -1.746538      0.698724
  H      -0.026733     -2.077590     -0.569609
  H      -1.778893      1.260917      0.137272
  H      -0.239583      2.154208      0.212406
  H      -0.767120      1.408578     -1.316868
13
Coordinates from ORCA-job orca1 E -157.553488689300
  C       0.002128     -0.011108      0.048471
  C       1.497317      0.012065      0.125262
  C      -0.714171     -1.300867     -0.194263
  C      -0.731307      1.259972     -0.216776
  H       1.922764      0.927766     -0.329433
  H       1.955648     -0.859043     -0.382567
  H       1.868204     -0.009371      1.174478
  H      -1.519068     -1.178616     -0.947026
  H      -1.208805     -1.705844      0.716689
  H      -0.031451     -2.099658     -0.544302
  H      -1.776964      1.240479      0.145325
  H      -0.240981      2.143932      0.233559
  H      -0.794909      1.469905     -1.312589
13
Coordinates from ORCA-job orca1 E -157.554462270393
  C       0.013310     -0.010753     -0.019962
  C       1.502041      0.010384      0.115511
  C      -0.713190     -1.303748     -0.201383
  C      -0.733551      1.265086     -0.224610
  H       1.945609      0.926015     -0.321269
  H       1.976983     -0.861489     -0.374892
  H       1.834372     -0.013292      1.178797
  H      -1.522974     -1.217755     -0.954252
  H      -1.206135     -1.659257      0.732342
  H      -0.036154     -2.120158     -0.518510
  H      -1.771243      1.217727      0.157630
  H      -0.236399      2.130144      0.254184
  H      -0.824263      1.526707     -1.306755
13
Coordinates from ORCA-job orca1 E -157.555072323320
  C       0.023658     -0.010845     -0.087879
  C       1.505463      0.009676      0.106068
  C      -0.712180     -1.306560     -0.209406
  C      -0.734547      1.269601     -0.232383
  H       1.964345      0.925837     -0.312650
  H       1.997056     -0.862540     -0.366164
  H       1.797917     -0.015704      1.182043
  H      -1.525133     -1.253900     -0.961983
  H      -1.204326     -1.609779      0.744026
  H      -0.040880     -2.138716     -0.492781
  H      -1.761298      1.194608      0.175018
  H      -0.227939      2.114035      0.272034
  H      -0.853729      1.573898     -1.299113
13
Coordinates from ORCA-job orca1 E -157.555365999754
  C       0.033594     -0.011385     -0.155416
  C       1.506460      0.008991      0.096997
  C      -0.709738     -1.307454     -0.218183
  C      -0.734231      1.271463     -0.238578
  H       1.980193      0.925218     -0.303975
  H       2.015177     -0.863648     -0.355196
  H       1.755866     -0.016461      1.184578
  H      -1.525612     -1.283320     -0.968964
  H      -1.199970     -1.560557      0.751373
  H      -0.044655     -2.154216     -0.468583
  H      -1.747395      1.173047      0.197848
  H      -0.216660      2.097647      0.284315
  H      -0.884623      1.610287     -1.289388
13
Coordinates from ORCA-job orca1 E -157.555416003800
  C       0.038304     -0.011870     -0.186937
  C       1.506510      0.008586      0.094119
  C      -0.708037     -1.307570     -0.223809
  C      -0.733835      1.271520     -0.240608
  H       1.987995      0.923897     -0.299384
  H       2.023778     -0.865000     -0.346092
  H       1.732242     -0.014636      1.187078
  H      -1.526906     -1.292647     -0.971375
  H      -1.194321     -1.540609      0.752762
  H      -0.046738     -2.160572     -0.462490
  H      -1.738173      1.166271      0.214727
  H      -0.208982      2.092396      0.283460
  H      -0.903431      1.619846     -1.284621
13
Coordinates from ORCA-job orca1 E -157.555430206054
  C       0.039521     -0.012081     -0.193465
  C       1.506754      0.008493      0.095669
  C      -0.707501     -1.307873     -0.227088
  C      -0.733766      1.271495     -0.240728
  H       1.990916      0.922518     -0.297471
  H       2.026328     -0.866368     -0.339102
  H       1.724099     -0.011657      1.190284
  H      -1.529354     -1.290810     -0.971151
  H      -1.189153     -1.540470      0.751736
  H      -0.048050     -2.161551     -0.468645
  H      -1.733219      1.168628      0.225958
  H      -0.204152      2.094382      0.275200
  H      -0.914015      1.614905     -1.284367
13
Coordinates from ORCA-job orca1 E -157.555469930470
  C       0.042866     -0.012321     -0.206052
  C       1.507055      0.008144      0.105288
  C      -0.705695     -1.308147     -0.239424
  C      -0.733269      1.271141     -0.241129
  H       1.999558      0.916603     -0.290179
  H       2.031582     -0.872367     -0.311109
  H       1.700564      0.000636      1.204254
  H      -1.539800     -1.277724     -0.968674
  H      -1.168348     -1.550022      0.745997
  H      -0.052357     -2.160704     -0.501174
  H      -1.713060      1.181512      0.268794
  H      -0.185233      2.105314      0.235009
  H      -0.955457      1.587546     -1.284771
13
Coordinates from ORCA-job orca1 E -157.555546589702
  C       0.048757     -0.011750     -0.222488
  C       1.506445      0.007133      0.124931
  C      -0.702119     -1.306936     -0.261446
  C      -0.731899      1.270429     -0.242982
  H       2.013655      0.905370     -0.275009
  H       2.036374     -0.883612     -0.260797
  H       1.663761      0.021086      1.229375
  H      -1.557220     -1.253112     -0.963524
  H      -1.131655     -1.570205      0.733248
  H      -0.059178     -2.154840     -0.562022
  H      -1.670890      1.206011      0.343451
  H      -0.154209      2.124522      0.154522
  H      -1.033416      1.535516     -1.280428
13
Coordinates from ORCA-job orca1 E -157.555655330599
  C       0.054289     -0.010503     -0.232496
  C       1.505230      0.005803      0.146223
  C      -0.698416     -1.304665     -0.282943
  C      -0.730273      1.269801     -0.245370
  H       2.026546      0.893645     -0.258592
  H       2.037345     -0.894936     -0.211440
  H       1.632058      0.040145      1.254017
  H      -1.573137     -1.227328     -0.957089
  H      -1.095542     -1.594146      0.717878
  H      -0.065721     -2.145007     -0.624591
  H      -1.623314      1.234498      0.412712
  H      -0.129490      2.142067      0.067232
  H      -1.111169      1.480240     -1.268710
13
Coordinates from ORCA-job orca1 E -157.555764266231
  C       0.060148     -0.009079     -0.242169
  C       1.503743      0.004248      0.167521
  C      -0.694420     -1.302084     -0.304361
  C      -0.728400      1.269250     -0.247919
  H       2.039742      0.881152     -0.241767
  H       2.036683     -0.906344     -0.161953
  H       1.600293      0.059218      1.277407
  H      -1.587887     -1.201973     -0.949230
  H      -1.058856     -1.618323      0.700749
  H      -0.072998     -2.133551     -0.686778
  H      -1.570588      1.265864      0.476375
  H      -0.112097      2.156452     -0.022496
  H      -1.186957      1.424782     -1.248549
13
Coordinates from ORCA-job orca1 E -157.555846032609
  C       0.065630     -0.007629     -0.249661
  C       1.501693      0.002640      0.189043
  C      -0.690360     -1.299587     -0.325562
  C      -0.726147      1.268900     -0.250474
  H       2.052145      0.868455     -0.224573
  H       2.034114     -0.917369     -0.113065
  H       1.569429      0.078146      1.299703
  H      -1.601121     -1.177647     -0.940717
  H      -1.022641     -1.644217      0.681289
  H      -0.080366     -2.120161     -0.748561
  H      -1.512917      1.302022      0.534410
  H      -0.101176      2.167476     -0.114956
  H      -1.259877      1.368582     -1.220045
13
Coordinates from ORCA-job orca1 E -157.555825219573
  C       0.057984     -0.007239     -0.204728
  C       1.498664      0.002058      0.212149
  C      -0.690674     -1.298002     -0.334070
  C      -0.725384      1.269618     -0.251546
  H       2.045552      0.861169     -0.220336
  H       2.021375     -0.924312     -0.087743
  H       1.585598      0.091107      1.320502
  H      -1.612099     -1.154789     -0.927687
  H      -1.001954     -1.699688      0.658664
  H      -0.078913     -2.089467     -0.808291
  H      -1.487282      1.352449      0.555307
  H      -0.090661      2.169099     -0.189431
  H      -1.293799      1.317609     -1.205960
13
Coordinates from ORCA-job orca1 E -157.555881033348
  C       0.064504     -0.007174     -0.236877
  C       1.497828      0.001692      0.208473
  C      -0.688061     -1.298973     -0.339244
  C      -0.724479      1.269684     -0.252719
  H       2.055260      0.856771     -0.218195
  H       2.025035     -0.927140     -0.074585
  H       1.558450      0.098061      1.317939
  H      -1.614149     -1.159574     -0.926285
  H      -0.990891     -1.682922      0.662846
  H      -0.083804     -2.100050     -0.806696
  H      -1.474180      1.340954      0.565973
  H      -0.093228      2.171262     -0.184767
  H      -1.303879      1.327022     -1.199033
13
Coordinates from ORCA-job orca1 E -157.555886515273
  C       0.061125     -0.007972     -0.232826
  C       1.497897      0.002601      0.199228
  C      -0.689894     -1.300684     -0.329683
  C      -0.725486      1.270090     -0.251931
  H       2.049387      0.860696     -0.229257
  H       2.024783     -0.923859     -0.092627
  H       1.572288      0.094140      1.308356
  H      -1.611398     -1.170330     -0.926411
  H      -1.002444     -1.675657      0.672877
  H      -0.080642     -2.105180     -0.784443
  H      -1.503664      1.323332      0.540488
  H      -0.094182      2.167642     -0.139692
  H      -1.269364      1.354793     -1.217248
13
Coordinates from ORCA-job orca1 E -157.555893833743
  C       0.061112     -0.007929     -0.233635
  C       1.496338      0.002437      0.203821
  C      -0.688995     -1.300889     -0.333795
  C      -0.724904      1.270347     -0.252852
  H       2.051523      0.855887     -0.229263
  H       2.022048     -0.927535     -0.078697
  H       1.565921      0.102944      1.312459
  H      -1.616417     -1.166920     -0.920197
  H      -0.990277     -1.685286      0.668640
  H      -0.082654     -2.100343     -0.801434
  H      -1.493454      1.331213      0.548641
  H      -0.091720      2.168151     -0.154633
  H      -1.280114      1.347534     -1.212225
13
Coordinates from ORCA-job orca1 E -157.555903573496
  C       0.059705     -0.008075     -0.235015
  C       1.492165      0.002395      0.212036
  C      -0.687295     -1.302268     -0.340809
  C      -0.723843      1.271387     -0.255037
  H       2.055546      0.843582     -0.234656
  H       2.014225     -0.936211     -0.047593
  H       1.554449      0.126203      1.318659
  H      -1.628844     -1.163127     -0.902445
  H      -0.961299     -1.707725      0.661110
  H      -0.087729     -2.089487     -0.837751
  H      -1.479078      1.343575      0.558538
  H      -0.086200      2.167818     -0.173937
  H      -1.293396      1.341546     -1.206269
13
Coordinates from ORCA-job orca1 E -157.555905630978
  C       0.058596     -0.008138     -0.234225
  C       1.490933      0.002535      0.213325
  C      -0.687074     -1.302950     -0.341493
  C      -0.723766      1.271935     -0.255603
  H       2.056239      0.839624     -0.238791
  H       2.011449     -0.938728     -0.039749
  H       1.553788      0.133806      1.318999
  H      -1.632647     -1.163505     -0.896188
  H      -0.953261     -1.714282      0.660103
  H      -0.089337     -2.086545     -0.846511
  H      -1.480106      1.344070      0.556969
  H      -0.084765      2.167299     -0.172385
  H      -1.291644      1.344490     -1.207621
13
Coordinates from ORCA-job orca1 E -157.555906985525
  C       0.057850     -0.008080     -0.233720
  C       1.490191      0.002650      0.213876
  C      -0.686948     -1.303353     -0.341681
  C      -0.723810      1.272383     -0.255952
  H       2.057068      0.836410     -0.242570
  H       2.009403     -0.940674     -0.034191
  H       1.554014      0.139649      1.318754
  H      -1.635365     -1.163906     -0.891479
  H      -0.947569     -1.718406      0.659814
  H      -0.090825     -2.084722     -0.852153
  H      -1.482507      1.342712      0.554553
  H      -0.084165      2.166988     -0.169055
  H      -1.288931      1.347960     -1.209366
13
Coordinates from ORCA-job orca1 E -157.555907784474
  C       0.057562     -0.007951     -0.233516
  C       1.489875      0.002704      0.214104
  C      -0.686858     -1.303442     -0.341755
  C      -0.723888      1.272631     -0.256110
  H       2.057917      0.834179     -0.245171
  H       2.008144     -0.942002     -0.030677
  H       1.554434      0.143423      1.318448
  H      -1.636957     -1.163946     -0.888620
  H      -0.944169     -1.720479      0.659763
  H      -0.091970     -2.083728     -0.855375
  H      -1.484552      1.340979      0.552693
  H      -0.084168      2.166913     -0.166381
  H      -1.286964      1.350330     -1.210574
13
Coordinates from ORCA-job orca1 E -157.555908415956
  C       0.057502     -0.007779     -0.233441
  C       1.489745      0.002728      0.214222
  C      -0.686777     -1.303365     -0.341817
  C      -0.723988      1.272777     -0.256178
  H       2.058861      0.832228     -0.247393
  H       2.007151     -0.943163     -0.027816
  H       1.554966      0.146533      1.318119
  H      -1.638116     -1.163758     -0.886485
  H      -0.941649     -1.721727      0.659773
  H      -0.093009     -2.083021     -0.857722
  H      -1.486467      1.338999      0.551070
  H      -0.084479      2.166951     -0.163967
  H      -1.285336      1.352209     -1.211535
13
Coordinates from ORCA-job orca1 E -157.555908875728
  C       0.057595     -0.007606     -0.233449
  C       1.489745      0.002731      0.214268
  C      -0.686710     -1.303196     -0.341882
  C      -0.724094      1.272831     -0.256171
  H       2.059762      0.830641     -0.249173
  H       2.006411     -0.944114     -0.025620
  H       1.555512      0.148956      1.317812
  H      -1.638869     -1.163451     -0.885073
  H      -0.939985     -1.722348      0.659788
  H      -0.093837     -2.082554     -0.859286
  H      -1.488042      1.337129      0.549826
  H      -0.084944      2.167049     -0.162008
  H      -1.284139      1.353543     -1.212204
13
Coordinates from ORCA-job orca1 E -157.555909233225
  C       0.057771     -0.007440     -0.233500
  C       1.489817      0.002725      0.214273
  C      -0.686653     -1.302981     -0.341963
  C      -0.724203      1.272827     -0.256104
  H       2.060625      0.829261     -0.250720
  H       2.005811     -0.944947     -0.023794
  H       1.556066      0.151014      1.317513
  H      -1.639360     -1.163095     -0.884151
  H      -0.938889     -1.722604      0.659780
  H      -0.094496     -2.082232     -0.860362
  H      -1.489364      1.335380      0.548865
  H      -0.085485      2.167172     -0.160344
  H      -1.283235      1.354533     -1.212664
13
Coordinates from ORCA-job orca1 E -157.555909522156
  C       0.057990     -0.007287     -0.233574
  C       1.489930      0.002715      0.214249
  C      -0.686603     -1.302748     -0.342070
  C      -0.724315      1.272782     -0.255983
  H       2.061457      0.827993     -0.252162
  H       2.005289     -0.945717     -0.022166
  H       1.556625      0.152899      1.317207
  H      -1.639656     -1.162730     -0.883610
  H      -0.938211     -1.722634      0.659731
  H      -0.095008     -2.082009     -0.861104
  H      -1.490485      1.333747      0.548140
  H      -0.086059      2.167302     -0.158874
  H      -1.282548      1.355299     -1.212955
13
Coordinates from ORCA-job orca1 E -157.555909766045
  C       0.058232     -0.007147     -0.233661
  C       1.490070      0.002705      0.214200
  C      -0.686556     -1.302512     -0.342213
  C      -0.724432      1.272709     -0.255799
  H       2.062278      0.826753     -0.253618
  H       2.004796     -0.946471     -0.020595
  H       1.557198      0.154773      1.316876
  H      -1.639795     -1.162376     -0.883394
  H      -0.937869     -1.722509      0.659625
  H      -0.095387     -2.081860     -0.861603
  H      -1.491451      1.332195      0.547618
  H      -0.086649      2.167429     -0.157512
  H      -1.282028      1.355923     -1.213095
13
Coordinates from ORCA-job orca1 E -157.555909978821
  C       0.058486     -0.007021     -0.233754
  C       1.490229      0.002699      0.214124
  C      -0.686509     -1.302277     -0.342406
  C      -0.724557      1.272610     -0.255538
  H       2.063111      0.825468     -0.255186
  H       2.004298     -0.947248     -0.018973
  H       1.557796      0.156769      1.316496
  H      -1.639782     -1.162045     -0.883504
  H      -0.937841     -1.722258      0.659444
  H      -0.095634     -2.081780     -0.861896
  H      -1.492290      1.330690      0.547296
  H      -0.087249      2.167546     -0.156193
  H      -1.281652      1.356459     -1.213080
13
Coordinates from ORCA-job orca1 E -157.555910169863
  C       0.058746     -0.006910     -0.233851
  C       1.490406      0.002700      0.214016
  C      -0.686459     -1.302049     -0.342670
  C      -0.724692      1.272486     -0.255173
  H       2.063980      0.824067     -0.256974
  H       2.003764     -0.948085     -0.017198
  H       1.558435      0.159021      1.316041
  H      -1.639599     -1.161746     -0.883989
  H      -0.938153     -1.721885      0.659162
  H      -0.095730     -2.081773     -0.861984
  H      -1.493012      1.329199      0.547196
  H      -0.087860      2.167649     -0.154862
  H      -1.281420      1.356940     -1.212885
13
Coordinates from ORCA-job orca1 E -157.555910345925
  C       0.059009     -0.006819     -0.233949
  C       1.490602      0.002711      0.213864
  C      -0.686404     -1.301832     -0.343029
  C      -0.724843      1.272332     -0.254666
  H       2.064913      0.822473     -0.259106
  H       2.003166     -0.949022     -0.015160
  H       1.559133      0.161682      1.315473
  H      -1.639205     -1.161492     -0.884947
  H      -0.938881     -1.721372      0.658742
  H      -0.095642     -2.081858     -0.861834
  H      -1.493609      1.327694      0.547371
  H      -0.088482      2.167728     -0.153469
  H      -1.281351      1.357385     -1.212459
13
Coordinates from ORCA-job orca1 E -157.555910511735
  C       0.059269     -0.006755     -0.234041
  C       1.490823      0.002739      0.213651
  C      -0.686341     -1.301632     -0.343521
  C      -0.725014      1.272140     -0.253964
  H       2.065933      0.820597     -0.261731
  H       2.002475     -0.950100     -0.012735
  H       1.559912      0.164934      1.314745
  H      -1.638528     -1.161302     -0.886541
  H      -0.940159     -1.720682      0.658131
  H      -0.095308     -2.082063     -0.861376
  H      -1.494052      1.326161      0.547909
  H      -0.089112      2.167772     -0.151971
  H      -1.281489      1.357803     -1.211726
13
Coordinates from ORCA-job orca1 E -157.555910669976
  C       0.059512     -0.006735     -0.234114
  C       1.491070      0.002792      0.213356
  C      -0.686270     -1.301467     -0.344191
  C      -0.725211      1.271900     -0.252996
  H       2.067052      0.818353     -0.265016
  H       2.001664     -0.951353     -0.009796
  H       1.560789      0.168978      1.313798
  H      -1.637468     -1.161210     -0.888994
  H      -0.942181     -1.719769      0.657258
  H      -0.094641     -2.082437     -0.860504
  H      -1.494276      1.324617      0.548947
  H      -0.089730      2.167757     -0.150343
  H      -1.281906      1.358185     -1.210575
13
Coordinates from ORCA-job orca1 E -157.555910818258
  C       0.059709     -0.006786     -0.234145
  C       1.491335      0.002881      0.212962
  C      -0.686195     -1.301367     -0.345074
  C      -0.725427      1.271606     -0.251708
  H       2.068230      0.815730     -0.269038
  H       2.000742     -0.952765     -0.006305
  H       1.561747      0.173903      1.312593
  H      -1.635926     -1.161268     -0.892518
  H      -0.945138     -1.718613      0.656056
  H      -0.093545     -2.083028     -0.859095
  H      -1.494167      1.323170      0.550635
  H      -0.090274      2.167651     -0.148634
  H      -1.282685      1.358497     -1.208899
13
Coordinates from ORCA-job orca1 E -157.555910946753
  C       0.059799     -0.006938     -0.234095
  C       1.491581      0.003014      0.212492
  C      -0.686129     -1.301385     -0.346120
  C      -0.725634      1.271280     -0.250164
  H       2.069291      0.812981     -0.273493
  H       1.999813     -0.954174     -0.002566
  H       1.562666      0.179331      1.311207
  H      -1.633939     -1.161534     -0.897012
  H      -0.948963     -1.717312      0.654565
  H      -0.092019     -2.083837     -0.857154
  H      -1.493603      1.322097      0.552985
  H      -0.090608      2.167422     -0.147071
  H      -1.283849      1.358667     -1.206742
13
Coordinates from ORCA-job orca1 E -157.555911044691
  C       0.059717     -0.007185     -0.233942
  C       1.491725      0.003168      0.212065
  C      -0.686101     -1.301557     -0.347070
  C      -0.725763      1.271008     -0.248745
  H       2.069879      0.810889     -0.277215
  H       1.999153     -0.955166      0.000411
  H       1.563258      0.183838      1.310005
  H      -1.631979     -1.161990     -0.901413
  H      -0.952763     -1.716244      0.653131
  H      -0.090405     -2.084685     -0.855127
  H      -1.492616      1.321834      0.555490
  H      -0.090552      2.167088     -0.146156
  H      -1.285146      1.358614     -1.204604
13
Coordinates from ORCA-job orca1 E -157.555911128538
  C       0.059504     -0.007416     -0.233765
  C       1.491692      0.003276      0.211893
  C      -0.686129     -1.301804     -0.347464
  C      -0.725745      1.270921     -0.248149
  H       2.069708      0.810480     -0.278414
  H       1.999086     -0.955272      0.001206
  H       1.563219      0.185270      1.309595
  H      -1.631036     -1.162406     -0.903535
  H      -0.954642     -1.715962      0.652464
  H      -0.089513     -2.085155     -0.854054
  H      -1.491694      1.322491      0.556912
  H      -0.090119      2.166801     -0.146317
  H      -1.285924      1.358388     -1.203541
13
Coordinates from ORCA-job orca1 E -157.555911232392
  C       0.059369     -0.007489     -0.233727
  C       1.491578      0.003291      0.211980
  C      -0.686172     -1.301928     -0.347282
  C      -0.725648      1.270992     -0.248426
  H       2.069231      0.811298     -0.277391
  H       1.999407     -0.954809      0.000268
  H       1.562826      0.184034      1.309912
  H      -1.631337     -1.162513     -0.902904
  H      -0.954129     -1.716317      0.652694
  H      -0.089662     -2.085105     -0.854280
  H      -1.491437      1.323181      0.556745
  H      -0.089756      2.166725     -0.146947
  H      -1.285865      1.358251     -1.203812
13
Coordinates from ORCA-job orca1 E -157.555911340583
  C       0.059320     -0.007506     -0.233763
  C       1.491497      0.003286      0.212082
  C      -0.686207     -1.301974     -0.347047
  C      -0.725565      1.271063     -0.248787
  H       2.068880      0.812062     -0.276299
  H       1.999706     -0.954394     -0.000653
  H       1.562505      0.182730      1.310252
  H      -1.631804     -1.162498     -0.901903
  H      -0.953289     -1.716650      0.653041
  H      -0.090020     -2.084982     -0.854704
  H      -1.491446      1.323537      0.556274
  H      -0.089550      2.166717     -0.147387
  H      -1.285621      1.358222     -1.204277
13
Coordinates from ORCA-job orca1 E -157.555911568877
  C       0.059244     -0.007559     -0.233873
  C       1.491338      0.003289      0.212290
  C      -0.686298     -1.302060     -0.346539
  C      -0.725372      1.271201     -0.249561
  H       2.068134      0.813701     -0.273985
  H       2.000399     -0.953485     -0.002581
  H       1.561836      0.179984      1.310960
  H      -1.632829     -1.162422     -0.899723
  H      -0.951485     -1.717332      0.653799
  H      -0.090878     -2.084757     -0.855618
  H      -1.491519      1.324153      0.555204
  H      -0.089115      2.166688     -0.148250
  H      -1.285048      1.358211     -1.205292
13
Coordinates from ORCA-job orca1 E -157.555911751863
  C       0.059219     -0.007621     -0.233955
  C       1.491261      0.003311      0.212395
  C      -0.686367     -1.302112     -0.346275
  C      -0.725244      1.271259     -0.249970
  H       2.067704      0.814611     -0.272770
  H       2.000841     -0.952955     -0.003560
  H       1.561466      0.178570      1.311328
  H      -1.633391     -1.162352     -0.898566
  H      -0.950554     -1.717689      0.654198
  H      -0.091413     -2.084688     -0.856110
  H      -1.491545      1.324402      0.554629
  H      -0.088841      2.166641     -0.148695
  H      -1.284730      1.358235     -1.205819
13
Coordinates from ORCA-job orca1 E -157.555912236062
  C       0.059202     -0.007843     -0.234194
  C       1.491109      0.003412      0.212613
  C      -0.686564     -1.302241     -0.345749
  C      -0.724902      1.271346     -0.250822
  H       2.066706      0.816635     -0.270232
  H       2.001969     -0.951714     -0.005495
  H       1.560615      0.175706      1.312089
  H      -1.634614     -1.162130     -0.896147
  H      -0.948667     -1.718440      0.655014
  H      -0.092734     -2.084670     -0.857170
  H      -1.491510      1.324770      0.553448
  H      -0.088131      2.166458     -0.149659
  H      -1.284074      1.358324     -1.206865
13
Coordinates from ORCA-job orca1 E -157.555912685051
  C       0.059240     -0.008064     -0.234391
  C       1.491051      0.003531      0.212713
  C      -0.686725     -1.302327     -0.345534
  C      -0.724646      1.271341     -0.251220
  H       2.066111      0.817745     -0.269044
  H       2.002755     -0.950965     -0.006261
  H       1.560122      0.174476      1.312446
  H      -1.635249     -1.161932     -0.895023
  H      -0.947869     -1.718802      0.655371
  H      -0.093604     -2.084821     -0.857710
  H      -1.491367      1.324759      0.552932
  H      -0.087623      2.166268     -0.150170
  H      -1.283791      1.358403     -1.207279
13
Coordinates from ORCA-job orca1 E -157.555913558151
  C       0.059393     -0.008524     -0.234779
  C       1.491038      0.003799      0.212793
  C      -0.687018     -1.302455     -0.345457
  C      -0.724205      1.271224     -0.251526
  H       2.065342      0.819021     -0.268095
  H       2.004011     -0.949965     -0.006515
  H       1.559476      0.173775      1.312742
  H      -1.635886     -1.161545     -0.894202
  H      -0.947478     -1.719088      0.655579
  H      -0.094895     -2.085336     -0.858227
  H      -1.490886      1.324317      0.552672
  H      -0.086798      2.165872     -0.150778
  H      -1.283689      1.358515     -1.207379
13
Coordinates from ORCA-job orca1 E -157.555914491742
  C       0.059617     -0.008980     -0.235162
  C       1.491123      0.004085      0.212761
  C      -0.687274     -1.302532     -0.345705
  C      -0.723843      1.271012     -0.251377
  H       2.064985      0.819426     -0.268429
  H       2.004945     -0.949443     -0.005654
  H       1.559149      0.174632      1.312662
  H      -1.635900     -1.161189     -0.894759
  H      -0.948251     -1.718924      0.655319
  H      -0.095702     -2.086037     -0.858165
  H      -1.490192      1.323541      0.553170
  H      -0.086182      2.165487     -0.151047
  H      -1.284070      1.358534     -1.206783
13
Coordinates from ORCA-job orca1 E -157.555915898680
  C       0.060035     -0.009632     -0.235740
  C       1.491360      0.004512      0.212598
  C      -0.687605     -1.302579     -0.346409
  C      -0.723399      1.270602     -0.250691
  H       2.064903      0.819161     -0.270148
  H       2.005987     -0.949154     -0.003342
  H       1.558986      0.177367      1.312175
  H      -1.635221     -1.160706     -0.897092
  H      -0.950675     -1.718135      0.654452
  H      -0.096335     -2.087269     -0.857384
  H      -1.488872      1.322118      0.554761
  H      -0.085531      2.164965     -0.151207
  H      -1.285229      1.358364     -1.205143
13
Coordinates from ORCA-job orca1 E -157.555917488999
  C       0.060556     -0.010264     -0.236366
  C       1.491707      0.004943      0.212346
  C      -0.687900     -1.302554     -0.347396
  C      -0.723022      1.270102     -0.249625
  H       2.065183      0.818269     -0.272738
  H       2.006808     -0.949207     -0.000303
  H       1.559064      0.181140      1.311409
  H      -1.633895     -1.160249     -0.900791
  H      -0.954294     -1.716781      0.653177
  H      -0.096484     -2.088703     -0.855910
  H      -1.487177      1.320509      0.557163
  H      -0.085116      2.164510     -0.151337
  H      -1.287023      1.357897     -1.202799
13
Coordinates from ORCA-job orca1 E -157.555919637942
  C       0.061328     -0.011007     -0.237193
  C       1.492261      0.005467      0.211967
  C      -0.688243     -1.302426     -0.348838
  C      -0.722610      1.269402     -0.248012
  H       2.065823      0.816804     -0.276393
  H       2.007715     -0.949465      0.003766
  H       1.559365      0.186305      1.310284
  H      -1.631608     -1.159684     -0.906666
  H      -0.959972     -1.714461      0.651256
  H      -0.096222     -2.090680     -0.853300
  H      -1.484605      1.318459      0.560927
  H      -0.084872      2.164063     -0.151734
  H      -1.289955      1.356836     -1.199234
13
Coordinates from ORCA-job orca1 E -157.555922105459
  C       0.062260     -0.011742     -0.238157
  C       1.492945      0.005984      0.211546
  C      -0.688574     -1.302198     -0.350512
  C      -0.722226      1.268604     -0.246148
  H       2.066697      0.815177     -0.280204
  H       2.008642     -0.949795      0.007933
  H       1.559740      0.191652      1.309064
  H      -1.628617     -1.159108     -0.913903
  H      -0.966928     -1.711386      0.648977
  H      -0.095546     -2.092913     -0.849810
  H      -1.481301      1.316493      0.565643
  H      -0.084871      2.163751     -0.152693
  H      -1.293816      1.355093     -1.194905
