! UKS B3LYP def2-SV(P) def2/J D3BJ Opt
%scf Convergence VeryTight
SmearTemp 2000
maxiter 500
end
*xyz 0 2
C -0.058653 0.008836 0.382777
C 1.433147 0.008372 0.17417
C -0.698141 -1.228168 -0.179633
C -0.72701 1.227936 -0.231001
H 1.721143 0.922911 -0.371975
H 1.737048 -0.891871 -0.395083
H 2.007738 -0.011055 1.1152
H -1.438439 -1.031604 -0.969732
H -1.230175 -1.724483 0.642428
H 0.105594 -1.861341 -0.634424
H -1.765417 1.211095 0.135288
H -0.15263 2.100541 0.173099
H -0.705799 1.158443 -1.324284
*
