13
Coordinates from ORCA-job orca5 E -157.528014543665
  C      -0.013801      0.075577      0.399739
  C      -0.348355      1.386235     -0.271444
  C       1.360581     -0.419639      0.068919
  C      -1.012493     -0.978134     -0.044105
  H       0.184781      2.224524      0.242874
  H      -1.452313      1.513981     -0.137465
  H      -0.107453      1.367219     -1.359916
  H       1.359594     -1.460325     -0.340495
  H       1.933230     -0.481087      1.029512
  H       1.920686      0.247782     -0.614047
  H      -0.586168     -1.454504     -0.942256
  H      -1.091176     -1.764691      0.733695
  H      -1.960313     -0.467155     -0.259917
13
Coordinates from ORCA-job orca5 E -157.540516203154
  C      -0.016026      0.053293      0.344098
  C      -0.345658      1.403746     -0.274383
  C       1.406830     -0.413088      0.077576
  C      -1.056907     -1.009233     -0.044814
  H       0.199554      2.220799      0.241564
  H      -1.433041      1.583001     -0.154751
  H      -0.099806      1.415944     -1.356989
  H       1.453861     -1.438998     -0.334765
  H       1.965754     -0.461992      1.041402
  H       1.970291      0.270125     -0.584482
  H      -0.701123     -1.513985     -0.961298
  H      -1.126327     -1.791681      0.737183
  H      -2.030601     -0.528148     -0.225247
13
Coordinates from ORCA-job orca5 E -157.547120526366
  C      -0.023640      0.036074      0.281697
  C      -0.341587      1.411466     -0.275168
  C       1.418138     -0.406685      0.087828
  C      -1.067104     -1.028908     -0.047044
  H       0.227413      2.205701      0.242851
  H      -1.415588      1.641598     -0.161581
  H      -0.091489      1.456282     -1.356704
  H       1.489611     -1.426797     -0.331177
  H       1.962489     -0.442529      1.055290
  H       1.983097      0.285783     -0.563325
  H      -0.767459     -1.555892     -0.977713
  H      -1.122473     -1.803197      0.743324
  H      -2.064609     -0.583113     -0.193184
13
Coordinates from ORCA-job orca5 E -157.550955530088
  C      -0.028402      0.023431      0.216147
  C      -0.338932      1.411950     -0.279103
  C       1.418736     -0.403091      0.096860
  C      -1.064550     -1.037791     -0.054101
  H       0.254967      2.184804      0.244997
  H      -1.405405      1.673565     -0.157518
  H      -0.093684      1.496250     -1.362629
  H       1.510427     -1.423783     -0.320206
  H       1.940242     -0.421220      1.076558
  H       1.992942      0.289842     -0.547687
  H      -0.823326     -1.581826     -0.995120
  H      -1.096730     -1.805936      0.744938
  H      -2.079485     -0.616413     -0.158043
13
Coordinates from ORCA-job orca5 E -157.553091003674
  C      -0.029192      0.016438      0.150467
  C      -0.336997      1.414823     -0.288039
  C       1.416115     -0.402896      0.104214
  C      -1.059337     -1.044012     -0.064600
  H       0.279629      2.166210      0.243097
  H      -1.398075      1.689010     -0.144171
  H      -0.109299      1.543911     -1.373825
  H       1.526884     -1.429317     -0.296966
  H       1.903383     -0.398809      1.102223
  H       2.010883      0.279974     -0.534096
  H      -0.878092     -1.598146     -1.015302
  H      -1.054180     -1.810635      0.738303
  H      -2.084921     -0.636767     -0.116210
13
Coordinates from ORCA-job orca5 E -157.554353011240
  C      -0.025915      0.012338      0.086982
  C      -0.335370      1.420228     -0.301345
  C       1.415442     -0.404790      0.110166
  C      -1.057195     -1.049815     -0.076664
  H       0.299175      2.151209      0.237850
  H      -1.392738      1.692532     -0.127098
  H      -0.133162      1.594451     -1.387284
  H       1.544790     -1.440299     -0.262145
  H       1.860690     -0.374052      1.128341
  H       2.038258      0.260677     -0.520617
  H      -0.937465     -1.604544     -1.037954
  H      -1.003103     -1.820410      0.721361
  H      -2.086607     -0.647741     -0.066499
13
Coordinates from ORCA-job orca5 E -157.555099343518
  C      -0.019325      0.007829      0.026261
  C      -0.334030      1.425256     -0.317247
  C       1.417983     -0.407481      0.115086
  C      -1.058659     -1.054660     -0.089099
  H       0.313278      2.137563      0.231366
  H      -1.388084      1.686506     -0.109180
  H      -0.161087      1.641324     -1.400498
  H       1.564854     -1.453305     -0.218573
  H       1.817529     -0.345694      1.151926
  H       2.070884      0.237057     -0.506791
  H      -1.001478     -1.600765     -1.061341
  H      -0.950491     -1.833323      0.694870
  H      -2.084574     -0.650523     -0.011686
13
Coordinates from ORCA-job orca5 E -157.555386995111
  C      -0.012166      0.001907     -0.020879
  C      -0.332718      1.427133     -0.330648
  C       1.422127     -0.409157      0.119213
  C      -1.061873     -1.057831     -0.099372
  H       0.321766      2.125757      0.226451
  H      -1.383638      1.676890     -0.094844
  H      -0.183694      1.672342     -1.410117
  H       1.581976     -1.463574     -0.176815
  H       1.784770     -0.317088      1.168183
  H       2.097148      0.217393     -0.496633
  H      -1.057398     -1.589067     -1.081168
  H      -0.909908     -1.846545      0.665780
  H      -2.079592     -0.648378      0.035942
13
Coordinates from ORCA-job orca5 E -157.555439947657
  C      -0.008289     -0.002672     -0.041411
  C      -0.331752      1.426533     -0.336289
  C       1.425107     -0.409200      0.121999
  C      -1.064361     -1.059469     -0.104642
  H       0.324682      2.119582      0.225228
  H      -1.380975      1.671932     -0.088621
  H      -0.192210      1.681689     -1.413922
  H       1.590405     -1.468224     -0.152201
  H       1.772761     -0.297673      1.174440
  H       2.107411      0.207990     -0.494837
  H      -1.086607     -1.578000     -1.092630
  H      -0.893073     -1.855973      0.647441
  H      -2.076299     -0.646731      0.060539
13
Coordinates from ORCA-job orca5 E -157.555453884007
  C      -0.006737     -0.005544     -0.047898
  C      -0.331133      1.425407     -0.337673
  C       1.426729     -0.408684      0.124170
  C      -1.065803     -1.060422     -0.107426
  H       0.325250      2.116788      0.225853
  H      -1.379709      1.670331     -0.086810
  H      -0.193387      1.681922     -1.414866
  H       1.593573     -1.470654     -0.136659
  H       1.771313     -0.283431      1.176108
  H       2.109329      0.202616     -0.498143
  H      -1.100799     -1.568635     -1.100220
  H      -0.887110     -1.863314      0.635683
  H      -2.074715     -0.646596      0.072974
13
Coordinates from ORCA-job orca5 E -157.555467265573
  C      -0.005777     -0.008545     -0.050274
  C      -0.330466      1.423678     -0.337476
  C       1.428153     -0.407787      0.127322
  C      -1.067160     -1.061453     -0.110772
  H       0.325009      2.114357      0.227871
  H      -1.378808      1.669303     -0.086343
  H      -0.191651      1.678815     -1.414627
  H       1.594947     -1.473936     -0.115126
  H       1.774605     -0.262487      1.176012
  H       2.108130      0.194103     -0.507136
  H      -1.115013     -1.554502     -1.110555
  H      -0.882122     -1.874008      0.619716
  H      -2.073047     -0.647756      0.086480
13
Coordinates from ORCA-job orca5 E -157.555493354204
  C      -0.004960     -0.013447     -0.049147
  C      -0.329365      1.420177     -0.335036
  C       1.430109     -0.405965      0.134194
  C      -1.069181     -1.063229     -0.117951
  H       0.323677      2.110586      0.233321
  H      -1.377987      1.667551     -0.086842
  H      -0.185743      1.671019     -1.412328
  H       1.594356     -1.480895     -0.066036
  H       1.786197     -0.214887      1.172085
  H       2.102679      0.171192     -0.531155
  H      -1.140392     -1.522698     -1.132197
  H      -0.873006     -1.897057      0.584171
  H      -2.069584     -0.652563      0.112015
13
Coordinates from ORCA-job orca5 E -157.555562373639
  C      -0.004704     -0.021421     -0.040157
  C      -0.327631      1.413548     -0.327953
  C       1.432795     -0.402580      0.147835
  C      -1.072177     -1.066082     -0.132448
  H       0.320244      2.104647      0.245245
  H      -1.377560      1.664234     -0.088792
  H      -0.172599      1.655199     -1.405539
  H       1.590388     -1.490593      0.035896
  H       1.813264     -0.118936      1.154976
  H       2.088667      0.116513     -0.580862
  H      -1.184529     -1.457581     -1.171236
  H      -0.857112     -1.940161      0.510867
  H      -2.062247     -0.667004      0.157262
13
Coordinates from ORCA-job orca5 E -157.555581214984
  C      -0.004561     -0.030806     -0.031190
  C      -0.325423      1.405851     -0.321015
  C       1.435906     -0.398232      0.162248
  C      -1.075556     -1.069405     -0.146767
  H       0.316368      2.097871      0.257689
  H      -1.376513      1.661673     -0.092891
  H      -0.156027      1.635525     -1.398820
  H       1.589732     -1.491475      0.137146
  H       1.839955     -0.026040      1.130316
  H       2.071854      0.060575     -0.623730
  H      -1.231713     -1.388441     -1.204677
  H      -0.844411     -1.981066      0.433249
  H      -2.052811     -0.686248      0.203536
13
Coordinates from ORCA-job orca5 E -157.555624220923
  C      -0.005862     -0.016566     -0.038516
  C      -0.328035      1.415044     -0.330042
  C       1.429264     -0.404618      0.146987
  C      -1.069470     -1.064098     -0.131591
  H       0.319416      2.105594      0.244336
  H      -1.380021      1.659813     -0.093533
  H      -0.173672      1.668185     -1.405587
  H       1.584806     -1.492922      0.034743
  H       1.808029     -0.122650      1.154980
  H       2.094072      0.108447     -0.579010
  H      -1.185149     -1.459076     -1.168924
  H      -0.845931     -1.937684      0.510073
  H      -2.060647     -0.669687      0.161178
13
Coordinates from ORCA-job orca5 E -157.555630468531
  C      -0.006900     -0.016137     -0.032225
  C      -0.328103      1.414663     -0.329411
  C       1.429269     -0.404232      0.147367
  C      -1.069666     -1.063912     -0.129893
  H       0.317114      2.107622      0.244871
  H      -1.381132      1.661054     -0.099043
  H      -0.168241      1.663401     -1.405276
  H       1.584612     -1.492072      0.030115
  H       1.812488     -0.125770      1.154772
  H       2.090568      0.111837     -0.579482
  H      -1.183236     -1.456323     -1.168489
  H      -0.848060     -1.939228      0.509873
  H      -2.061914     -0.671120      0.161914
13
Coordinates from ORCA-job orca5 E -157.555631456035
  C      -0.007063     -0.015490     -0.031925
  C      -0.328100      1.414851     -0.330266
  C       1.428881     -0.404450      0.147525
  C      -1.069494     -1.063569     -0.129445
  H       0.316358      2.108170      0.244553
  H      -1.381722      1.660398     -0.101671
  H      -0.167188      1.664934     -1.405705
  H       1.584088     -1.492263      0.029945
  H       1.811652     -0.126888      1.155487
  H       2.091498      0.111163     -0.578312
  H      -1.185595     -1.454729     -1.168315
  H      -0.845127     -1.940076      0.507567
  H      -2.061388     -0.672270      0.165655
13
Coordinates from ORCA-job orca5 E -157.555637692693
  C      -0.007442     -0.015417     -0.028966
  C      -0.327586      1.413793     -0.332865
  C       1.428624     -0.404082      0.150398
  C      -1.069922     -1.063011     -0.128619
  H       0.311762      2.109321      0.245128
  H      -1.383504      1.658451     -0.114167
  H      -0.158033      1.662747     -1.407288
  H       1.583814     -1.492385      0.037912
  H       1.812739     -0.121905      1.156715
  H       2.091060      0.107820     -0.578129
  H      -1.201550     -1.437562     -1.171913
  H      -0.835078     -1.949801      0.489593
  H      -2.058084     -0.678187      0.187296
13
Coordinates from ORCA-job orca5 E -157.555645157293
  C      -0.007138     -0.017096     -0.026175
  C      -0.326063      1.410394     -0.339305
  C       1.428996     -0.402784      0.158127
  C      -1.071436     -1.062337     -0.128480
  H       0.301594      2.109820      0.246884
  H      -1.386400      1.652806     -0.140443
  H      -0.138088      1.656456     -1.411293
  H       1.584755     -1.492589      0.063970
  H       1.814118     -0.103365      1.159128
  H       2.090907      0.097601     -0.579050
  H      -1.244702     -1.392759     -1.180667
  H      -0.812347     -1.973419      0.441772
  H      -2.047397     -0.692944      0.240628
13
Coordinates from ORCA-job orca5 E -157.555646912513
  C      -0.006033     -0.018836     -0.028360
  C      -0.325256      1.408482     -0.342768
  C       1.429741     -0.402072      0.162110
  C      -1.072267     -1.062380     -0.129619
  H       0.297509      2.108643      0.247734
  H      -1.387088      1.649316     -0.150017
  H      -0.130891      1.654229     -1.413563
  H       1.585939     -1.492703      0.079978
  H       1.813208     -0.091392      1.160194
  H       2.092421      0.091052     -0.579600
  H      -1.267724     -1.370318     -1.184527
  H      -0.802130     -1.984307      0.417306
  H      -2.040629     -0.699932      0.266228
13
Coordinates from ORCA-job orca5 E -157.555647388929
  C      -0.005321     -0.019392     -0.030299
  C      -0.325263      1.408220     -0.343188
  C       1.430186     -0.402006      0.162478
  C      -1.072304     -1.062553     -0.130332
  H       0.297587      2.107870      0.247784
  H      -1.386878      1.648549     -0.148565
  H      -0.132103      1.654471     -1.414006
  H       1.586302     -1.492808      0.082417
  H       1.812464     -0.089337      1.160250
  H       2.093561      0.089777     -0.579726
  H      -1.269593     -1.368543     -1.185226
  H      -0.801960     -1.984793      0.416173
  H      -2.039880     -0.699673      0.267332
13
Coordinates from ORCA-job orca5 E -157.555647598588
  C      -0.005285     -0.019270     -0.029720
  C      -0.325367      1.408198     -0.343188
  C       1.430257     -0.402018      0.162473
  C      -1.072233     -1.062503     -0.130194
  H       0.297315      2.108091      0.247677
  H      -1.386997      1.648429     -0.148529
  H      -0.132190      1.654101     -1.414074
  H       1.586182     -1.492796      0.081569
  H       1.812861     -0.090025      1.160295
  H       2.093528      0.090042     -0.579675
  H      -1.268706     -1.368412     -1.185219
  H      -0.802448     -1.984499      0.416997
  H      -2.040118     -0.699554      0.266683
13
Coordinates from ORCA-job orca5 E -157.555647888523
  C      -0.005368     -0.018985     -0.028625
  C      -0.325509      1.408242     -0.343137
  C       1.430246     -0.402059      0.162426
  C      -1.072101     -1.062419     -0.129931
  H       0.297094      2.108539      0.247345
  H      -1.387133      1.648465     -0.148468
  H      -0.132372      1.653567     -1.414158
  H       1.585920     -1.492778      0.080097
  H       1.813450     -0.091313      1.160404
  H       2.093302      0.090556     -0.579524
  H      -1.267144     -1.368570     -1.185154
  H      -0.803056     -1.984020      0.418258
  H      -2.040529     -0.699442      0.265560
13
Coordinates from ORCA-job orca5 E -157.555648117218
  C      -0.005515     -0.018766     -0.027687
  C      -0.325586      1.408289     -0.343028
  C       1.430191     -0.402072      0.162396
  C      -1.072020     -1.062367     -0.129737
  H       0.297179      2.108892      0.246916
  H      -1.387143      1.648709     -0.148245
  H      -0.132631      1.652972     -1.414232
  H       1.585765     -1.492724      0.078903
  H       1.813872     -0.092385      1.160524
  H       2.092967      0.091177     -0.579357
  H      -1.265828     -1.368918     -1.185088
  H      -0.803540     -1.983687      0.419192
  H      -2.040911     -0.699337      0.264538
13
Coordinates from ORCA-job orca5 E -157.555648331969
  C      -0.005660     -0.018572     -0.026815
  C      -0.325649      1.408333     -0.342901
  C       1.430137     -0.402076      0.162400
  C      -1.071953     -1.062320     -0.129609
  H       0.297541      2.109201      0.246261
  H      -1.387053      1.649061     -0.147653
  H      -0.133243      1.652264     -1.414380
  H       1.585669     -1.492654      0.077779
  H       1.814181     -0.093451      1.160714
  H       2.092646      0.091887     -0.579097
  H      -1.264468     -1.369368     -1.185064
  H      -0.804038     -1.983351      0.420084
  H      -2.041311     -0.699171      0.263374
13
Coordinates from ORCA-job orca5 E -157.555648569265
  C      -0.005804     -0.018367     -0.025879
  C      -0.325719      1.408378     -0.342756
  C       1.430085     -0.402075      0.162469
  C      -1.071876     -1.062261     -0.129541
  H       0.298269      2.109527      0.245197
  H      -1.386846      1.649557     -0.146535
  H      -0.134416      1.651336     -1.414661
  H       1.585601     -1.492563      0.076569
  H       1.814417     -0.094677      1.161045
  H       2.092340      0.092751     -0.578657
  H      -1.262868     -1.369907     -1.185107
  H      -0.804610     -1.982964      0.421030
  H      -2.041773     -0.698950      0.261920
13
Coordinates from ORCA-job orca5 E -157.555648828936
  C      -0.005937     -0.018147     -0.024881
  C      -0.325800      1.408422     -0.342612
  C       1.430036     -0.402070      0.162656
  C      -1.071776     -1.062188     -0.129561
  H       0.299471      2.109877      0.243562
  H      -1.386488      1.650225     -0.144756
  H      -0.136342      1.650148     -1.415135
  H       1.585555     -1.492452      0.075317
  H       1.814555     -0.096061      1.161580
  H       2.092091      0.093749     -0.577960
  H      -1.261059     -1.370447     -1.185266
  H      -0.805230     -1.982556      0.421932
  H      -2.042274     -0.698717      0.260216
13
Coordinates from ORCA-job orca5 E -157.555649100506
  C      -0.006045     -0.017918     -0.023849
  C      -0.325892      1.408455     -0.342499
  C       1.429992     -0.402055      0.163031
  C      -1.071640     -1.062097     -0.129712
  H       0.301277      2.110252      0.241166
  H      -1.385937      1.651097     -0.142162
  H      -0.139231      1.648644     -1.415874
  H       1.585531     -1.492316      0.074132
  H       1.814546     -0.097562      1.162398
  H       2.091949      0.094852     -0.576912
  H      -1.259152     -1.370841     -1.185602
  H      -0.805836     -1.982196      0.422602
  H      -2.042763     -0.698533      0.258376
13
Coordinates from ORCA-job orca5 E -157.555649350344
  C      -0.006105     -0.017698     -0.022875
  C      -0.325989      1.408461     -0.342467
  C       1.429959     -0.402024      0.163668
  C      -1.071463     -1.061993     -0.130044
  H       0.303758      2.110624      0.237885
  H      -1.385156      1.652167     -0.138693
  H      -0.143202      1.646821     -1.416938
  H       1.585549     -1.492159      0.073221
  H       1.814326     -0.099048      1.163562
  H       2.091985      0.095977     -0.575444
  H      -1.257405     -1.370871     -1.186181
  H      -0.806309     -1.981997      0.422747
  H      -2.043149     -0.698477      0.256653
13
Coordinates from ORCA-job orca5 E -157.555649522221
  C      -0.006087     -0.017527     -0.022125
  C      -0.326077      1.408423     -0.342566
  C       1.429947     -0.401973      0.164589
  C      -1.071254     -1.061885     -0.130581
  H       0.306800      2.110936      0.233840
  H      -1.384163      1.653353     -0.134546
  H      -0.148081      1.644804     -1.418304
  H       1.585628     -1.491994      0.072858
  H       1.813838     -0.100285      1.165053
  H       2.092267      0.096966     -0.573595
  H      -1.256217     -1.370320     -1.187024
  H      -0.806490     -1.982088      0.422064
  H      -2.043312     -0.698627      0.255431
13
Coordinates from ORCA-job orca5 E -157.555649558353
  C      -0.005975     -0.017451     -0.021799
  C      -0.326133      1.408335     -0.342818
  C       1.429967     -0.401906      0.165682
  C      -1.071050     -1.061794     -0.131264
  H       0.309921      2.111114      0.229650
  H      -1.383105      1.654440     -0.130397
  H      -0.153104      1.642936     -1.419778
  H       1.585778     -1.491852      0.073245
  H       1.813111     -0.100978      1.166660
  H       2.092796      0.097606     -0.571632
  H      -1.255985     -1.369141     -1.188027
  H      -0.806263     -1.982526      0.420471
  H      -2.043159     -0.699001      0.255101
