! UKS B3LYP def2-SV(P) def2/J D3BJ Opt
%scf Convergence VeryTight
SmearTemp 2000
maxiter 500
end
*xyz 0 2
C -0.044128 0.02008 -0.380368
C -1.443047 -0.029511 0.172956
C 0.738679 -1.246519 -0.124827
C 0.718642 1.242971 0.033497
H -2.011716 -0.774524 -0.434053
H -1.507341 -0.345976 1.219528
H -1.8965 0.952185 -0.017688
H 1.598711 -1.290119 -0.840584
H 0.1194 -2.127687 -0.36519
H 1.123733 -1.250622 0.905975
H 0.002011 2.009751 0.420483
H 1.23108 1.718745 -0.839732
H 1.534468 1.034087 0.768642
*
