13
Coordinates from ORCA-job orca2 E -157.529104178928
  C      -0.013531      0.080692     -0.405817
  C       1.100578     -0.893964     -0.035812
  C       0.258437      1.320463      0.415014
  C      -1.378238     -0.501209     -0.149636
  H       1.159985     -0.953932      1.066761
  H       2.043640     -0.440969     -0.376977
  H       0.854804     -1.845263     -0.529144
  H      -0.618758      1.954400      0.570790
  H       1.094952      1.851714     -0.105926
  H       0.651839      1.063777      1.425385
  H      -1.896545     -0.692155     -1.123748
  H      -1.336756     -1.494497      0.355981
  H      -2.006439      0.232899      0.388696
13
Coordinates from ORCA-job orca2 E -157.541211584082
  C      -0.003341      0.077070     -0.343048
  C       1.117910     -0.932240     -0.053128
  C       0.254045      1.370235      0.423097
  C      -1.392400     -0.503141     -0.140834
  H       1.201909     -1.062217      1.041998
  H       2.078757     -0.503938     -0.392111
  H       0.888235     -1.879985     -0.567719
  H      -0.635033      2.012584      0.526859
  H       1.082382      1.912197     -0.083492
  H       0.621590      1.159924      1.450051
  H      -1.888048     -0.688122     -1.121764
  H      -1.368532     -1.490461      0.361268
  H      -2.043504      0.210050      0.394390
13
Coordinates from ORCA-job orca2 E -157.548067703879
  C       0.003082      0.071872     -0.278996
  C       1.118827     -0.939682     -0.065893
  C       0.257126      1.390153      0.425950
  C      -1.397423     -0.501230     -0.134571
  H       1.224980     -1.132783      1.023070
  H       2.089619     -0.536279     -0.412435
  H       0.908261     -1.886409     -0.591783
  H      -0.637699      2.035190      0.477234
  H       1.077949      1.946166     -0.067195
  H       0.597121      1.209408      1.469855
  H      -1.866755     -0.685141     -1.124446
  H      -1.389810     -1.482035      0.376834
  H      -2.071311      0.192727      0.397942
13
Coordinates from ORCA-job orca2 E -157.551727688560
  C       0.004123      0.061988     -0.213795
  C       1.116644     -0.938548     -0.073852
  C       0.258838      1.396571      0.430847
  C      -1.398222     -0.499097     -0.125970
  H       1.251111     -1.196334      1.002136
  H       2.086632     -0.541570     -0.429553
  H       0.916944     -1.877590     -0.620007
  H      -0.635292      2.044562      0.427240
  H       1.083128      1.951369     -0.058987
  H       0.569236      1.254708      1.492077
  H      -1.835203     -0.686384     -1.129463
  H      -1.412538     -1.474327      0.400457
  H      -2.091432      0.186611      0.394436
13
Coordinates from ORCA-job orca2 E -157.553678618660
  C      -0.001031      0.049382     -0.151038
  C       1.117454     -0.936873     -0.080148
  C       0.259247      1.398838      0.440061
  C      -1.401463     -0.500254     -0.114571
  H       1.286241     -1.256128      0.976736
  H       2.078507     -0.525720     -0.443076
  H       0.918754     -1.859611     -0.655884
  H      -0.626432      2.055499      0.381400
  H       1.099012      1.930195     -0.051144
  H       0.538608      1.304900      1.516953
  H      -1.799783     -0.701640     -1.131876
  H      -1.443176     -1.466202      0.430979
  H      -2.111972      0.189571      0.377175
13
Coordinates from ORCA-job orca2 E -157.554880083597
  C      -0.008359      0.036839     -0.092520
  C       1.120638     -0.937417     -0.087117
  C       0.258847      1.401363      0.453343
  C      -1.406377     -0.504414     -0.101516
  H       1.325918     -1.310525      0.946182
  H       2.068032     -0.500275     -0.454922
  H       0.913808     -1.837290     -0.696793
  H      -0.614105      2.069120      0.343550
  H       1.120223      1.895941     -0.038983
  H       0.508293      1.357757      1.541501
  H      -1.760955     -0.733779     -1.129659
  H      -1.479227     -1.455331      0.468744
  H      -2.132769      0.199967      0.343756
13
Coordinates from ORCA-job orca2 E -157.555597064089
  C      -0.013577      0.026062     -0.039532
  C       1.124006     -0.940058     -0.096598
  C       0.258054      1.404728      0.469591
  C      -1.410198     -0.509752     -0.087778
  H       1.363150     -1.358680      0.910991
  H       2.056442     -0.474133     -0.467379
  H       0.902290     -1.812566     -0.740655
  H      -0.601925      2.081483      0.314958
  H       1.140952      1.861124     -0.020420
  H       0.479654      1.407189      1.564419
  H      -1.717181     -0.783531     -1.120779
  H      -1.517232     -1.436878      0.516102
  H      -2.150467      0.216967      0.292648
13
Coordinates from ORCA-job orca2 E -157.555921962336
  C      -0.015099      0.018084      0.003795
  C       1.125905     -0.942458     -0.110076
  C       0.257283      1.406995      0.486945
  C      -1.411358     -0.513961     -0.074728
  H       1.391201     -1.399131      0.873078
  H       2.045983     -0.452521     -0.481509
  H       0.888514     -1.786826     -0.785456
  H      -0.591991      2.088545      0.295228
  H       1.157971      1.835246      0.004988
  H       0.452361      1.443577      1.585816
  H      -1.670373     -0.849860     -1.102621
  H      -1.554564     -1.404633      0.575432
  H      -2.161865      0.238902      0.224675
13
Coordinates from ORCA-job orca2 E -157.556028668784
  C      -0.014151      0.015626      0.020236
  C       1.126645     -0.943129     -0.121733
  C       0.256946      1.407266      0.497624
  C      -1.411038     -0.515306     -0.067811
  H       1.400313     -1.418499      0.849660
  H       2.042435     -0.443026     -0.490730
  H       0.882395     -1.771436     -0.814151
  H      -0.587563      2.090234      0.289614
  H       1.165975      1.827504      0.024769
  H       0.436234      1.452954      1.598639
  H      -1.642450     -0.901988     -1.084096
  H      -1.576503     -1.372842      0.621300
  H      -2.165270      0.254599      0.172246
13
Coordinates from ORCA-job orca2 E -157.556157800712
  C      -0.012111      0.015577      0.027063
  C       1.127370     -0.942339     -0.139726
  C       0.256675      1.406073      0.510307
  C      -1.410148     -0.515806     -0.060774
  H       1.402289     -1.436377      0.821516
  H       2.041802     -0.434026     -0.501147
  H       0.879139     -1.752893     -0.851097
  H      -0.582912      2.091279      0.289381
  H       1.174284      1.824581      0.053257
  H       0.416719      1.449318      1.614220
  H      -1.611302     -0.977582     -1.051123
  H      -1.601676     -1.318920      0.686161
  H      -2.166162      0.273072      0.097530
13
Coordinates from ORCA-job orca2 E -157.556366016213
  C      -0.009571      0.019491      0.017214
  C       1.128081     -0.939184     -0.163561
  C       0.256402      1.402639      0.523302
  C      -1.408818     -0.514984     -0.054920
  H       1.393580     -1.448913      0.791970
  H       2.045601     -0.426458     -0.510588
  H       0.881497     -1.733183     -0.893406
  H      -0.578115      2.092366      0.296718
  H       1.182260      1.826754      0.089290
  H       0.395231      1.426939      1.630623
  H      -1.582030     -1.071436     -0.999594
  H      -1.625654     -1.239962      0.763440
  H      -2.164496      0.287886      0.005080
13
Coordinates from ORCA-job orca2 E -157.556643414970
  C      -0.007652      0.028165     -0.014121
  C       1.128432     -0.933477     -0.186772
  C       0.255770      1.396363      0.531566
  C      -1.406875     -0.511931     -0.053069
  H       1.373043     -1.448355      0.771989
  H       2.053874     -0.423436     -0.515549
  H       0.891667     -1.720492     -0.926873
  H      -0.575277      2.092590      0.311912
  H       1.186839      1.833816      0.123366
  H       0.377750      1.384325      1.641287
  H      -1.565144     -1.154540     -0.942327
  H      -1.635618     -1.154491      0.830054
  H      -2.162840      0.293420     -0.075895
13
Coordinates from ORCA-job orca2 E -157.556869557229
  C      -0.008018      0.039461     -0.059954
  C       1.127899     -0.924300     -0.207352
  C       0.253860      1.386058      0.535833
  C      -1.403604     -0.507001     -0.055070
  H       1.348663     -1.437256      0.759187
  H       2.062461     -0.420033     -0.517256
  H       0.906019     -1.714760     -0.948461
  H      -0.573028      2.091793      0.330785
  H       1.189990      1.836700      0.155035
  H       0.361535      1.329646      1.646186
  H      -1.558544     -1.222580     -0.885719
  H      -1.631190     -1.068406      0.883205
  H      -2.162075      0.292633     -0.140853
13
Coordinates from ORCA-job orca2 E -157.556956713034
  C      -0.009285      0.042883     -0.070447
  C       1.127979     -0.917645     -0.230009
  C       0.252825      1.378963      0.549466
  C      -1.402243     -0.506198     -0.050940
  H       1.347681     -1.448948      0.726904
  H       2.062522     -0.406173     -0.527492
  H       0.907297     -1.695564     -0.984897
  H      -0.563479      2.095583      0.338366
  H       1.201020      1.823323      0.192510
  H       0.337071      1.308316      1.661086
  H      -1.533626     -1.301030     -0.809833
  H      -1.655204     -0.970981      0.933397
  H      -2.158590      0.279425     -0.232543
13
Coordinates from ORCA-job orca2 E -157.556982275446
  C      -0.010126      0.041026     -0.072861
  C       1.130319     -0.914935     -0.233960
  C       0.251054      1.374743      0.552516
  C      -1.402826     -0.505351     -0.051567
  H       1.357140     -1.450547      0.719221
  H       2.062521     -0.399839     -0.532296
  H       0.910226     -1.694887     -0.987278
  H      -0.561899      2.095007      0.339809
  H       1.203019      1.815164      0.200811
  H       0.328893      1.303625      1.664518
  H      -1.536135     -1.314279     -0.794885
  H      -1.660962     -0.946707      0.941272
  H      -2.157256      0.278937     -0.249733
13
Coordinates from ORCA-job orca2 E -157.556989112979
  C      -0.009926      0.037812     -0.066397
  C       1.131981     -0.914887     -0.234217
  C       0.250551      1.373959      0.554689
  C      -1.403842     -0.505785     -0.051416
  H       1.368309     -1.452666      0.715463
  H       2.060724     -0.396577     -0.537789
  H       0.909003     -1.695470     -0.986118
  H      -0.560708      2.094833      0.337451
  H       1.204440      1.810598      0.203439
  H       0.325019      1.309009      1.667225
  H      -1.537913     -1.315526     -0.793526
  H      -1.667934     -0.943241      0.941442
  H      -2.155738      0.279895     -0.254679
13
Coordinates from ORCA-job orca2 E -157.556989835399
  C      -0.009657      0.037605     -0.067053
  C       1.132319     -0.914752     -0.234408
  C       0.250412      1.373430      0.554999
  C      -1.403910     -0.505580     -0.051827
  H       1.370944     -1.449967      0.716200
  H       2.060218     -0.396683     -0.541025
  H       0.908735     -1.697564     -0.983755
  H      -0.560584      2.094504      0.337583
  H       1.204613      1.810408      0.205016
  H       0.323722      1.307461      1.667567
  H      -1.539074     -1.314979     -0.793977
  H      -1.668343     -0.942443      0.941323
  H      -2.155427      0.280516     -0.255078
13
Coordinates from ORCA-job orca2 E -157.556990499441
  C      -0.009180      0.037195     -0.067481
  C       1.132838     -0.914617     -0.235299
  C       0.250226      1.372392      0.556364
  C      -1.404025     -0.505187     -0.052454
  H       1.377597     -1.443435      0.717353
  H       2.058387     -0.396959     -0.549914
  H       0.906888     -1.702097     -0.978882
  H      -0.559721      2.094144      0.337511
  H       1.205598      1.809529      0.209791
  H       0.320074      1.304456      1.669048
  H      -1.539873     -1.315143     -0.793766
  H      -1.670367     -0.939689      0.941338
  H      -2.154475      0.281367     -0.258040
