! UKS B3LYP def2-SV(P) def2/J D3BJ Opt
%scf Convergence VeryTight
SmearTemp 2000
maxiter 500
end
*xyz 0 1
C 2.509158 -0.452194 -0.089631
C 1.845379 0.882044 -0.164154
C 0.497443 0.971391 0.445398
C -0.355152 -0.256562 0.326054
C -1.803675 0.204575 0.190969
C -2.658531 -0.989203 -0.151256
H 3.296684 -0.468544 -0.884132
H 1.852416 -1.316628 -0.251305
H 3.055186 -0.549204 0.877972
H 1.803868 1.229673 -1.221881
H 2.516749 1.611079 0.358135
H 0.580685 1.252894 1.515258
H -0.039555 1.825981 -0.039886
H -0.135242 -0.868638 -0.560244
H -0.298278 -0.809829 1.282528
H -1.905735 1.0161 -0.558891
H -2.172033 0.635244 1.153564
H -3.049356 -1.427579 0.794554
H -3.496182 -0.729942 -0.811688
H -2.043828 -1.760657 -0.634084
*
