! UKS B3LYP def2-SV(P) def2/J D3BJ Opt
%scf Convergence VeryTight
SmearTemp 2000
maxiter 500
end
*xyz 0 1
C -4.534893 0.808033 -0.096817
C -3.820418 -0.062913 0.893801
C -2.477007 -0.539366 0.430264
C -1.630901 0.525773 -0.19728
C -0.543477 -0.15648 -1.019485
C 0.268027 -1.11119 -0.174302
C 1.744378 -1.037566 -0.472052
C 2.48297 -0.107172 0.46975
C 3.593673 0.528715 -0.357859
C 4.859733 0.688518 0.460817
H -4.229849 1.873541 0.018542
H -4.470941 0.460449 -1.137442
H -5.618573 0.789361 0.184489
H -4.459797 -0.968164 1.052124
H -3.751145 0.472895 1.852697
H -2.565404 -1.377581 -0.278986
H -1.939276 -0.906834 1.340908
H -2.181431 1.204863 -0.864888
H -1.094886 1.099526 0.596528
H -1.08402 -0.695843 -1.838165
H 0.127669 0.572694 -1.509149
H 0.047968 -0.983482 0.909852
H -0.057606 -2.144449 -0.451272
H 2.228798 -2.038494 -0.360167
H 1.846027 -0.704605 -1.528129
H 2.934536 -0.656834 1.33208
H 1.821306 0.674729 0.869492
H 3.83557 -0.058153 -1.254406
H 3.220701 1.530265 -0.685825
H 5.729002 0.771775 -0.220203
H 4.742698 1.647853 1.020381
H 4.976569 -0.099863 1.224996
*
