32
Coordinates from ORCA-job orca3 E -393.702045707186
  C      -4.534893      0.808033     -0.096817
  C      -3.820418     -0.062913      0.893801
  C      -2.477007     -0.539366      0.430264
  C      -1.630901      0.525773     -0.197280
  C      -0.543477     -0.156480     -1.019485
  C       0.268027     -1.111190     -0.174302
  C       1.744378     -1.037566     -0.472052
  C       2.482970     -0.107172      0.469750
  C       3.593673      0.528715     -0.357859
  C       4.859733      0.688518      0.460817
  H      -4.229849      1.873541      0.018542
  H      -4.470941      0.460449     -1.137442
  H      -5.618573      0.789361      0.184489
  H      -4.459797     -0.968164      1.052124
  H      -3.751145      0.472895      1.852697
  H      -2.565404     -1.377581     -0.278986
  H      -1.939276     -0.906834      1.340908
  H      -2.181431      1.204863     -0.864888
  H      -1.094886      1.099526      0.596528
  H      -1.084020     -0.695843     -1.838165
  H       0.127669      0.572694     -1.509149
  H       0.047968     -0.983482      0.909852
  H      -0.057606     -2.144449     -0.451272
  H       2.228798     -2.038494     -0.360167
  H       1.846027     -0.704605     -1.528129
  H       2.934536     -0.656834      1.332080
  H       1.821306      0.674729      0.869492
  H       3.835570     -0.058153     -1.254406
  H       3.220701      1.530265     -0.685825
  H       5.729002      0.771775     -0.220203
  H       4.742698      1.647853      1.020381
  H       4.976569     -0.099863      1.224996
32
Coordinates from ORCA-job orca3 E -393.721840519068
  C      -4.673797      0.879120     -0.092866
  C      -3.959604     -0.014220      0.918348
  C      -2.601719     -0.555897      0.470016
  C      -1.667265      0.465488     -0.179738
  C      -0.559547     -0.223487     -1.009995
  C       0.311471     -1.206398     -0.207634
  C       1.806963     -1.094461     -0.530723
  C       2.572445     -0.136123      0.403552
  C       3.725550      0.571669     -0.354432
  C       4.986785      0.778862      0.502907
  H      -4.329169      1.928444     -0.024207
  H      -4.619514      0.505917     -1.129177
  H      -5.751681      0.915268      0.176950
  H      -4.620264     -0.887833      1.104449
  H      -3.865433      0.533474      1.872666
  H      -2.732875     -1.407505     -0.221528
  H      -2.098100     -0.938774      1.379638
  H      -2.202535      1.154857     -0.851100
  H      -1.140936      1.043059      0.610106
  H      -1.087503     -0.751527     -1.832313
  H       0.093391      0.528824     -1.490619
  H       0.126695     -1.104240      0.877160
  H      -0.003855     -2.235042     -0.481483
  H       2.296407     -2.085887     -0.444795
  H       1.896158     -0.758589     -1.579465
  H       3.004477     -0.691021      1.258777
  H       1.885247      0.626041      0.809845
  H       4.007874      0.011599     -1.260377
  H       3.341867      1.560460     -0.677422
  H       5.875931      0.908122     -0.139844
  H       4.853654      1.709539      1.093651
  H       5.128885     -0.029739      1.239947
32
Coordinates from ORCA-job orca3 E -393.728077247100
  C      -4.684392      0.927474     -0.063195
  C      -3.980840     -0.005842      0.935247
  C      -2.630296     -0.580783      0.468581
  C      -1.658510      0.431377     -0.161883
  C      -0.561939     -0.247882     -1.011223
  C       0.318856     -1.259517     -0.238840
  C       1.822391     -1.132847     -0.558856
  C       2.572753     -0.130899      0.349411
  C       3.760632      0.568957     -0.365811
  C       4.975668      0.850228      0.543702
  H      -4.279751      1.953856     -0.025066
  H      -4.643012      0.548651     -1.100309
  H      -5.754595      1.018166      0.204926
  H      -4.656526     -0.858453      1.134224
  H      -3.852960      0.526818      1.895989
  H      -2.802380     -1.408936     -0.245428
  H      -2.137110     -1.019967      1.354574
  H      -2.193569      1.147403     -0.808437
  H      -1.146385      0.997773      0.641238
  H      -1.074141     -0.757780     -1.849425
  H       0.082951      0.526058     -1.467159
  H       0.149988     -1.160325      0.849296
  H      -0.001495     -2.284010     -0.502363
  H       2.312153     -2.118250     -0.461298
  H       1.927896     -0.821126     -1.613887
  H       2.958280     -0.657871      1.240468
  H       1.863087      0.637491      0.708588
  H       4.088885     -0.036059     -1.230202
  H       3.392227      1.529161     -0.769112
  H       5.898240      0.969941     -0.049317
  H       4.820686      1.790777      1.106185
  H       5.113209      0.056417      1.299676
32
Coordinates from ORCA-job orca3 E -393.731536094414
  C      -4.667150      0.969081     -0.033123
  C      -3.983341     -0.005501      0.941077
  C      -2.647781     -0.604248      0.451636
  C      -1.641268      0.402469     -0.137413
  C      -0.551069     -0.259009     -0.999769
  C       0.328443     -1.295454     -0.255927
  C       1.831438     -1.161536     -0.574566
  C       2.558359     -0.121201      0.306070
  C       3.771936      0.550486     -0.382801
  C       4.931080      0.909764      0.566066
  H      -4.206870      1.971918     -0.009699
  H      -4.638907      0.595352     -1.073793
  H      -5.730041      1.104965      0.238407
  H      -4.676838     -0.842890      1.139875
  H      -3.827756      0.501485      1.912749
  H      -2.853690     -1.394260     -0.297055
  H      -2.171714     -1.109999      1.310916
  H      -2.166770      1.150474     -0.755950
  H      -1.145571      0.948611      0.689358
  H      -1.046009     -0.745763     -1.860939
  H       0.093759      0.532734     -1.424989
  H       0.175063     -1.199580      0.835670
  H      -0.000505     -2.317352     -0.514394
  H       2.325666     -2.142972     -0.459569
  H       1.949053     -0.877412     -1.637734
  H       2.898281     -0.611077      1.236936
  H       1.832948      0.657049      0.611096
  H       4.145471     -0.108688     -1.188736
  H       3.423825      1.474681     -0.878565
  H       5.883767      1.015876      0.018621
  H       4.745311      1.868748      1.084518
  H       5.060879      0.143250      1.352323
32
Coordinates from ORCA-job orca3 E -393.734045702774
  C      -4.654448      0.993121     -0.000587
  C      -3.979072     -0.015765      0.940484
  C      -2.659149     -0.621363      0.420924
  C      -1.628934      0.387433     -0.117604
  C      -0.536236     -0.251392     -0.985120
  C       0.333729     -1.308112     -0.262067
  C       1.834893     -1.179212     -0.578608
  C       2.544018     -0.107989      0.273184
  C       3.786372      0.514748     -0.398741
  C       4.890251      0.951723      0.576270
  H      -4.156782      1.978290      0.017500
  H      -4.646696      0.632571     -1.046957
  H      -5.708698      1.156552      0.286553
  H      -4.682381     -0.846782      1.133035
  H      -3.801366      0.461746      1.923906
  H      -2.888166     -1.365790     -0.367360
  H      -2.197588     -1.190636      1.248840
  H      -2.141370      1.164277     -0.711879
  H      -1.150261      0.909291      0.734929
  H      -1.013388     -0.712781     -1.870237
  H       0.113838      0.553368     -1.377276
  H       0.190873     -1.215432      0.832181
  H      -0.008208     -2.326112     -0.519535
  H       2.331452     -2.156984     -0.438554
  H       1.962208     -0.927654     -1.650008
  H       2.837106     -0.554605      1.241938
  H       1.815150      0.688307      0.518067
  H       4.200209     -0.204019     -1.131616
  H       3.467528      1.393096     -0.990413
  H       5.867997      1.042023      0.070317
  H       4.670845      1.932848      1.036530
  H       5.006277      0.225234      1.402196
32
Coordinates from ORCA-job orca3 E -393.736189239613
  C      -4.657330      1.000536      0.031278
  C      -3.977249     -0.033998      0.936433
  C      -2.670457     -0.632446      0.383108
  C      -1.626745      0.384673     -0.104010
  C      -0.522574     -0.229684     -0.969896
  C       0.335493     -1.301620     -0.259891
  C       1.835403     -1.185907     -0.575393
  C       2.538296     -0.093032      0.248416
  C       3.812315      0.467813     -0.409996
  C       4.867804      0.977810      0.578077
  H      -4.138711      1.975164      0.047337
  H      -4.675875      0.656227     -1.020775
  H      -5.702293      1.176935      0.342899
  H      -4.682130     -0.865975      1.121471
  H      -3.781406      0.415873      1.929709
  H      -2.914069     -1.329605     -0.443584
  H      -2.217986     -1.256821      1.176594
  H      -2.126609      1.184078     -0.679647
  H      -1.166171      0.882821      0.772773
  H      -0.980912     -0.667824     -1.876899
  H       0.133526      0.585077     -1.330285
  H       0.199634     -1.211910      0.836141
  H      -0.021413     -2.314539     -0.518463
  H       2.330812     -2.160580     -0.407857
  H       1.968948     -0.967419     -1.654025
  H       2.786243     -0.497289      1.248537
  H       1.818925      0.727629      0.434499
  H       4.256519     -0.309473     -1.061567
  H       3.529711      1.293107     -1.091171
  H       5.864858      1.052839      0.107498
  H       4.617375      1.979381      0.973786
  H       4.966071      0.298157      1.445196
32
Coordinates from ORCA-job orca3 E -393.738148888738
  C      -4.676396      0.993954      0.059512
  C      -3.982334     -0.059440      0.928945
  C      -2.684450     -0.639561      0.342215
  C      -1.635143      0.391530     -0.093863
  C      -0.512090     -0.196757     -0.952651
  C       0.334620     -1.279702     -0.249997
  C       1.834005     -1.181829     -0.566911
  C       2.543467     -0.075673      0.229562
  C       3.849864      0.413701     -0.416852
  C       4.867250      0.989919      0.572081
  H      -4.148915      1.964026      0.076510
  H      -4.722943      0.667203     -0.997381
  H      -5.712188      1.172448      0.399295
  H      -4.682464     -0.897871      1.104898
  H      -3.772565      0.365747      1.930259
  H      -2.935413     -1.290029     -0.520079
  H      -2.235981     -1.310454      1.099903
  H      -2.124563      1.207501     -0.655768
  H      -1.194479      0.867481      0.805490
  H      -0.949928     -0.614928     -1.879264
  H       0.148599      0.627161     -1.282497
  H       0.203640     -1.192474      0.847134
  H      -0.037419     -2.286933     -0.510752
  H       2.324642     -2.154251     -0.372303
  H       1.969804     -0.994807     -1.651492
  H       2.750062     -0.440758      1.254219
  H       1.845940      0.774544      0.360668
  H       4.311546     -0.419120     -0.982170
  H       3.607753      1.181075     -1.177323
  H       5.878370      1.048812      0.129362
  H       4.592357      2.008917      0.901399
  H       4.945352      0.360568      1.478143
32
Coordinates from ORCA-job orca3 E -393.739938580813
  C      -4.708190      0.977259      0.078513
  C      -3.997280     -0.090019      0.916141
  C      -2.702868     -0.644619      0.301475
  C      -1.652267      0.404546     -0.081013
  C      -0.504028     -0.155030     -0.927227
  C       0.332963     -1.247456     -0.230220
  C       1.831641     -1.169537     -0.553962
  C       2.560051     -0.058564      0.216214
  C       3.894533      0.356749     -0.421669
  C       4.887168      0.991699      0.555818
  H      -4.178816      1.946370      0.099331
  H      -4.780101      0.667141     -0.981930
  H      -5.735711      1.151981      0.444560
  H      -4.689293     -0.937838      1.080020
  H      -3.779384      0.313882      1.924372
  H      -2.954309     -1.248883     -0.594102
  H      -2.256321     -1.355130      1.023572
  H      -2.132712      1.232712     -0.633064
  H      -1.235282      0.858677      0.840725
  H      -0.918406     -0.554852     -1.872598
  H       0.158830      0.679334     -1.224809
  H       0.207063     -1.163756      0.867879
  H      -0.053678     -2.248344     -0.494895
  H       2.314829     -2.141165     -0.337238
  H       1.963589     -1.008935     -1.643244
  H       2.733257     -0.390884      1.258250
  H       1.894234      0.823056      0.300562
  H       4.360566     -0.525100     -0.902635
  H       3.689765      1.065131     -1.247507
  H       5.906212      1.036686      0.129733
  H       4.594089      2.023540      0.824287
  H       4.949859      0.411350      1.494954
32
Coordinates from ORCA-job orca3 E -393.741541471404
  C      -4.744162      0.957264      0.090903
  C      -4.017181     -0.122093      0.899565
  C      -2.722609     -0.648430      0.261900
  C      -1.672211      0.419427     -0.065455
  C      -0.496484     -0.109707     -0.895319
  C       0.331540     -1.212077     -0.204448
  C       1.828711     -1.155380     -0.540062
  C       2.582503     -0.045489      0.205650
  C       3.939821      0.299621     -0.424481
  C       4.914690      0.991269      0.532729
  H      -4.214799      1.926292      0.117338
  H      -4.838376      0.662714     -0.972114
  H      -5.763963      1.126752      0.480359
  H      -4.700412     -0.979677      1.048997
  H      -3.794554      0.262249      1.914228
  H      -2.971410     -1.206638     -0.664020
  H      -2.277262     -1.393504      0.948779
  H      -2.144801      1.257281     -0.609506
  H      -1.282119      0.851513      0.878369
  H      -0.884680     -0.491475     -1.859030
  H       0.166069      0.736493     -1.157901
  H       0.212147     -1.132188      0.894717
  H      -0.069373     -2.206214     -0.473523
  H       2.302239     -2.128152     -0.307369
  H       1.952432     -1.015402     -1.633046
  H       2.728750     -0.350820      1.260124
  H       1.952237      0.864854      0.250317
  H       4.403867     -0.623207     -0.823356
  H       3.768012      0.947888     -1.305378
  H       5.937818      1.026338      0.115883
  H       4.605342      2.031616      0.745123
  H       4.968220      0.458882      1.500321
32
Coordinates from ORCA-job orca3 E -393.742943992695
  C      -4.777643      0.937834      0.100399
  C      -4.036825     -0.153836      0.880389
  C      -2.740654     -0.651139      0.222951
  C      -1.690924      0.433522     -0.048326
  C      -0.488240     -0.063933     -0.859895
  C       0.330622     -1.177108     -0.176533
  C       1.825281     -1.143041     -0.527135
  C       2.605493     -0.037265      0.196107
  C       3.981229      0.243307     -0.424533
  C       4.939730      0.992853      0.505461
  H      -4.247433      1.906233      0.133457
  H      -4.891725      0.658933     -0.964761
  H      -5.789922      1.102288      0.511085
  H      -4.711851     -1.020535      1.013409
  H      -3.810851      0.210424      1.901607
  H      -2.986251     -1.162870     -0.730264
  H      -2.296622     -1.427535      0.874673
  H      -2.156494      1.280565     -0.583955
  H      -1.330076      0.842575      0.917149
  H      -0.847984     -0.426556     -1.841881
  H       0.172138      0.794626     -1.084381
  H       0.219752     -1.099792      0.923746
  H      -0.085223     -2.164311     -0.448522
  H       2.287334     -2.118742     -0.283573
  H       1.938932     -1.019482     -1.623138
  H       2.728540     -0.318254      1.260412
  H       2.009876      0.896884      0.205107
  H       4.442021     -0.712370     -0.741455
  H       3.839439      0.828348     -1.353787
  H       5.965320      1.021109      0.094560
  H       4.613805      2.037955      0.663297
  H       4.989206      0.509313      1.498625
32
Coordinates from ORCA-job orca3 E -393.744158486341
  C      -4.809613      0.916650      0.106350
  C      -4.055575     -0.185425      0.858822
  C      -2.756346     -0.652155      0.185219
  C      -1.708892      0.447503     -0.029536
  C      -0.479809     -0.016398     -0.821144
  C       0.329907     -1.140811     -0.147180
  C       1.821082     -1.130710     -0.514790
  C       2.628335     -0.032010      0.188221
  C       4.018774      0.187755     -0.421974
  C       4.963653      0.993407      0.474015
  H      -4.278962      1.884654      0.145298
  H      -4.941107      0.652297     -0.960408
  H      -5.814864      1.075158      0.536197
  H      -4.721716     -1.061453      0.974458
  H      -3.828277      0.159050      1.886574
  H      -2.997460     -1.118179     -0.792124
  H      -2.313526     -1.456399      0.802739
  H      -2.168451      1.303584     -0.555827
  H      -1.379251      0.832899      0.956651
  H      -0.808652     -0.357612     -1.821627
  H       0.176722      0.854599     -1.004003
  H       0.229669     -1.064951      0.954269
  H      -0.102227     -2.120770     -0.420147
  H       2.270165     -2.110991     -0.265116
  H       1.923531     -1.020023     -1.613267
  H       2.731210     -0.290239      1.260597
  H       2.066241      0.922135      0.164916
  H       4.474733     -0.793451     -0.658179
  H       3.904023      0.706836     -1.393244
  H       5.990299      1.015353      0.065574
  H       4.622459      2.040333      0.579050
  H       5.013926      0.559369      1.489911
32
Coordinates from ORCA-job orca3 E -393.745195318076
  C      -4.843683      0.890318      0.108504
  C      -4.074953     -0.219207      0.834339
  C      -2.770171     -0.651273      0.148638
  C      -1.728264      0.463119     -0.008711
  C      -0.472541      0.035827     -0.778569
  C       0.329042     -1.099384     -0.115657
  C       1.815806     -1.114600     -0.501729
  C       2.651961     -0.025699      0.181576
  C       4.054755      0.131473     -0.417433
  C       4.991878      0.988049      0.437745
  H      -4.315467      1.859455      0.153927
  H      -4.989236      0.640211     -0.959777
  H      -5.843114      1.039279      0.555025
  H      -4.729786     -1.106115      0.930458
  H      -3.849941      0.105217      1.869138
  H      -3.003850     -1.073076     -0.850190
  H      -2.327494     -1.479722      0.732930
  H      -2.183340      1.327965     -0.524486
  H      -1.431455      0.824265      0.996893
  H      -0.767933     -0.281193     -1.797542
  H       0.177994      0.919319     -0.916462
  H       0.241529     -1.023893      0.987020
  H      -0.120570     -2.071924     -0.387259
  H       2.250379     -2.100633     -0.248700
  H       1.906390     -1.015207     -1.602318
  H       2.736249     -0.260392      1.261135
  H       2.124704      0.946681      0.126802
  H       4.501277     -0.870168     -0.572855
  H       3.965488      0.581225     -1.425362
  H       6.018655      0.998364      0.029257
  H       4.640928      2.035822      0.489615
  H       5.044764      0.605900      1.474343
32
Coordinates from ORCA-job orca3 E -393.746035788838
  C      -4.878168      0.861150      0.107829
  C      -4.094390     -0.254651      0.806865
  C      -2.782122     -0.648733      0.112849
  C      -1.748003      0.479252      0.014279
  C      -0.466120      0.090235     -0.732355
  C       0.328483     -1.055348     -0.082009
  C       1.809557     -1.095814     -0.488233
  C       2.674928     -0.018117      0.175277
  C       4.088032      0.075522     -0.411089
  C       5.022593      0.978401      0.397112
  H      -4.354489      1.832398      0.161919
  H      -5.034729      0.626584     -0.962362
  H      -5.872964      0.997470      0.568490
  H      -4.736305     -1.153200      0.879977
  H      -3.875182      0.047723      1.849644
  H      -3.005824     -1.026778     -0.905473
  H      -2.338995     -1.499107      0.663752
  H      -2.199283      1.353289     -0.489337
  H      -1.483988      0.814823      1.037673
  H      -0.726381     -0.199365     -1.769198
  H       0.176593      0.985472     -0.822833
  H       0.256408     -0.979056      1.021901
  H      -0.139331     -2.020513     -0.349521
  H       2.229620     -2.087793     -0.233553
  H       1.887358     -1.006507     -1.590663
  H       2.741495     -0.227676      1.261353
  H       2.182949      0.970313      0.089105
  H       4.521710     -0.941108     -0.485084
  H       4.021935      0.452389     -1.450304
  H       6.048864      0.971759     -0.012682
  H       4.666704      2.025962      0.394696
  H       5.079045      0.651027      1.452268
32
Coordinates from ORCA-job orca3 E -393.746669131569
  C      -4.909743      0.833699      0.101629
  C      -4.114363     -0.289421      0.774879
  C      -2.792416     -0.644817      0.078597
  C      -1.765975      0.493546      0.042847
  C      -0.458710      0.142688     -0.678675
  C       0.329225     -1.014610     -0.044146
  C       1.802889     -1.078538     -0.473790
  C       2.696220     -0.012274      0.169869
  C       4.116270      0.022880     -0.404902
  C       5.051589      0.969293      0.350163
  H      -4.390556      1.806679      0.168121
  H      -5.073127      0.616758     -0.971230
  H      -5.901613      0.956633      0.572192
  H      -4.743839     -1.198629      0.819649
  H      -3.905666     -0.012267      1.826881
  H      -3.002797     -0.977615     -0.958112
  H      -2.350505     -1.516479      0.595499
  H      -2.212076      1.378485     -0.446333
  H      -1.534525      0.800456      1.082905
  H      -0.682609     -0.114459     -1.732719
  H       0.175356      1.047847     -0.718112
  H       0.275862     -0.938247      1.060944
  H      -0.157602     -1.971880     -0.306104
  H       2.210686     -2.076088     -0.220490
  H       1.865190     -0.996405     -1.577754
  H       2.748002     -0.196801      1.261417
  H       2.236927      0.988832      0.054595
  H       4.538161     -1.001624     -0.400257
  H       4.067011      0.325566     -1.468996
  H       6.075732      0.945268     -0.064191
  H       4.691146      2.014062      0.295270
  H       5.115858      0.697462      1.420650
32
Coordinates from ORCA-job orca3 E -393.747117179307
  C      -4.938765      0.808186      0.087034
  C      -4.136697     -0.324589      0.735433
  C      -2.801332     -0.639830      0.045624
  C      -1.782751      0.505516      0.080910
  C      -0.450203      0.193936     -0.612841
  C       0.331461     -0.976853      0.001489
  C       1.795771     -1.062472     -0.455765
  C       2.716713     -0.006773      0.165339
  C       4.140056     -0.026480     -0.401062
  C       5.080339      0.960106      0.293579
  H      -4.424315      1.782205      0.173122
  H      -5.102436      0.613012     -0.989935
  H      -5.930592      0.916209      0.561302
  H      -4.754274     -1.243021      0.743471
  H      -3.945442     -0.077694      1.798307
  H      -2.992699     -0.923755     -1.009108
  H      -2.362983     -1.532806      0.527391
  H      -2.221753      1.403814     -0.390106
  H      -1.585265      0.778044      1.137365
  H      -0.636571     -0.024717     -1.683066
  H       0.173852      1.106842     -0.596111
  H       0.299585     -0.902781      1.107574
  H      -0.175115     -1.925309     -0.254630
  H       2.193963     -2.064893     -0.205955
  H       1.838529     -0.985860     -1.560987
  H       2.757760     -0.164776      1.261665
  H       2.288076      1.004086      0.021366
  H       4.551380     -1.052459     -0.321262
  H       4.100548      0.201197     -1.484135
  H       6.100255      0.916917     -0.129350
  H       4.716080      1.999718      0.187415
  H       5.156821      0.745282      1.376223
32
Coordinates from ORCA-job orca3 E -393.747418348772
  C      -4.966540      0.782695      0.064433
  C      -4.161974     -0.363337      0.685709
  C      -2.808610     -0.633995      0.012261
  C      -1.800371      0.515190      0.130356
  C      -0.442313      0.246800     -0.532750
  C       0.335075     -0.937869      0.057222
  C       1.787781     -1.043742     -0.431737
  C       2.736838      0.003990      0.159497
  C       4.160648     -0.074508     -0.400055
  C       5.112611      0.946349      0.225609
  H      -4.458852      1.756958      0.182294
  H      -5.121927      0.617584     -1.018746
  H      -5.962113      0.871137      0.534913
  H      -4.766787     -1.289388      0.645094
  H      -3.996258     -0.155209      1.761145
  H      -2.973644     -0.863213     -1.060104
  H      -2.375149     -1.548353      0.456349
  H      -2.231625      1.429541     -0.316309
  H      -1.639612      0.744534      1.203151
  H      -0.590703      0.072056     -1.617136
  H       0.168514      1.165507     -0.455174
  H       0.326949     -0.868403      1.163981
  H      -0.190875     -1.877257     -0.192686
  H       2.178823     -2.049573     -0.183823
  H       1.806722     -0.975210     -1.538057
  H       2.770057     -0.120356      1.260551
  H       2.339316      1.021965     -0.019117
  H       4.558522     -1.097214     -0.244879
  H       4.126559      0.074675     -1.497069
  H       6.126996      0.875178     -0.206457
  H       4.750277      1.979488      0.063982
  H       5.201665      0.793982      1.317850
32
Coordinates from ORCA-job orca3 E -393.747603005470
  C      -4.989540      0.761229      0.035516
  C      -4.188567     -0.404546      0.623766
  C      -2.813261     -0.627292     -0.022334
  C      -1.817798      0.519335      0.192566
  C      -0.434984      0.297761     -0.437481
  C       0.340531     -0.901179      0.123183
  C       1.779210     -1.024290     -0.400987
  C       2.754026      0.021997      0.149324
  C       4.176220     -0.119518     -0.401815
  C       5.144669      0.930217      0.146200
  H      -4.490328      1.732769      0.201841
  H      -5.126167      0.639197     -1.055848
  H      -5.993165      0.825057      0.492683
  H      -4.780364     -1.334061      0.519787
  H      -4.056548     -0.247617      1.712470
  H      -2.944323     -0.793793     -1.110931
  H      -2.386949     -1.563815      0.380088
  H      -2.240657      1.453189     -0.220569
  H      -1.696182      0.693432      1.280807
  H      -0.546228      0.172520     -1.533171
  H       0.159661      1.219348     -0.295391
  H       0.358218     -0.839141      1.230194
  H      -0.203061     -1.831929     -0.120911
  H       2.167508     -2.030534     -0.149908
  H       1.770122     -0.970212     -1.508144
  H       2.781666     -0.056615      1.254838
  H       2.385812      1.042078     -0.074743
  H       4.558020     -1.133238     -0.168316
  H       4.144651     -0.054215     -1.507220
  H       6.153431      0.820768     -0.290784
  H       4.790599      1.954085     -0.079520
  H       5.243779      0.849013      1.245106
32
Coordinates from ORCA-job orca3 E -393.747678582656
  C      -4.998811      0.756272      0.007989
  C      -4.211260     -0.437119      0.557763
  C      -2.815146     -0.621089     -0.055178
  C      -1.829411      0.511450      0.257918
  C      -0.426885      0.330472     -0.341855
  C       0.348050     -0.882003      0.188737
  C       1.772814     -1.015331     -0.367968
  C       2.762542      0.041037      0.134629
  C       4.183172     -0.151532     -0.405151
  C       5.162630      0.924534      0.067546
  H      -4.504952      1.718393      0.233883
  H      -5.109605      0.687539     -1.090918
  H      -6.012827      0.798130      0.444228
  H      -4.795193     -1.361249      0.384218
  H      -4.114501     -0.339304      1.656962
  H      -2.910770     -0.723266     -1.155409
  H      -2.400702     -1.579828      0.305219
  H      -2.242120      1.466839     -0.114552
  H      -1.742744      0.623567      1.357581
  H      -0.507177      0.253247     -1.444604
  H       0.153255      1.250518     -0.141732
  H       0.390085     -0.829255      1.295493
  H      -0.208799     -1.805936     -0.051459
  H       2.166256     -2.017047     -0.106577
  H       1.735854     -0.983031     -1.475323
  H       2.786617      0.015961      1.242799
  H       2.411911      1.054824     -0.140658
  H       4.554660     -1.149358     -0.099193
  H       4.152448     -0.165436     -1.512393
  H       6.168436      0.777590     -0.365238
  H       4.816483      1.933797     -0.225417
  H       5.265691      0.916617      1.168954
32
Coordinates from ORCA-job orca3 E -393.747723186617
  C      -4.993566      0.767285     -0.002038
  C      -4.220968     -0.446331      0.524249
  C      -2.815693     -0.619494     -0.070768
  C      -1.830569      0.499306      0.289896
  C      -0.421727      0.332434     -0.298689
  C       0.352668     -0.886193      0.219316
  C       1.772243     -1.021427     -0.349035
  C       2.760907      0.049686      0.124228
  C       4.181981     -0.157489     -0.409278
  C       5.161154      0.932226      0.032045
  H      -4.499156      1.719477      0.261239
  H      -5.086235      0.732344     -1.104189
  H      -6.014387      0.801382      0.418701
  H      -4.806587     -1.361560      0.313231
  H      -4.141756     -0.382433      1.627321
  H      -2.893601     -0.690506     -1.174790
  H      -2.411496     -1.590174      0.269797
  H      -2.236144      1.466989     -0.058339
  H      -1.757379      0.577484      1.393403
  H      -0.491751      0.274485     -1.403341
  H       0.154173      1.250232     -0.077281
  H       0.404061     -0.838255      1.325807
  H      -0.208259     -1.807903     -0.020401
  H       2.173561     -2.016363     -0.074111
  H       1.723570     -1.008563     -1.456296
  H       2.784170      0.056871      1.232663
  H       2.408953      1.054459     -0.180156
  H       4.553460     -1.145689     -0.074056
  H       4.151904     -0.203868     -1.515520
  H       6.168858      0.768943     -0.390551
  H       4.818964      1.931717     -0.296298
  H       5.258648      0.960927      1.133536
32
Coordinates from ORCA-job orca3 E -393.747776100792
  C      -4.980721      0.789689     -0.012146
  C      -4.233680     -0.458044      0.469430
  C      -2.814767     -0.615888     -0.097107
  C      -1.830972      0.477066      0.338294
  C      -0.413729      0.330468     -0.234199
  C       0.359050     -0.896689      0.266988
  C       1.772940     -1.036207     -0.314176
  C       2.755276      0.063905      0.103950
  C       4.177691     -0.162121     -0.418273
  C       5.153959      0.947206     -0.021438
  H      -4.488191      1.721240      0.319090
  H      -5.038627      0.816635     -1.116870
  H      -6.013839      0.809722      0.378457
  H      -4.822678     -1.354328      0.196062
  H      -4.182518     -0.452772      1.576062
  H      -2.864464     -0.637302     -1.204695
  H      -2.426886     -1.604588      0.210769
  H      -2.225670      1.463666      0.032720
  H      -1.777279      0.498390      1.445403
  H      -0.469729      0.298241     -1.340900
  H       0.156183      1.244402      0.015340
  H       0.420752     -0.856945      1.373117
  H      -0.207599     -1.814754      0.025746
  H       2.188937     -2.015341     -0.006639
  H       1.709342     -1.066256     -1.420284
  H       2.777907      0.129914      1.210465
  H       2.396003      1.048335     -0.252090
  H       4.550644     -1.134769     -0.042160
  H       4.149278     -0.254045     -1.521569
  H       6.167607      0.757507     -0.418338
  H       4.821597      1.928414     -0.408970
  H       5.234185      1.035250      1.078256
32
Coordinates from ORCA-job orca3 E -393.747783636435
  C      -4.978815      0.792294     -0.010958
  C      -4.234639     -0.461241      0.459854
  C      -2.813829     -0.614342     -0.103165
  C      -1.831191      0.474721      0.344561
  C      -0.412216      0.331901     -0.224771
  C       0.359135     -0.896497      0.274888
  C       1.773076     -1.039039     -0.305749
  C       2.754079      0.067100      0.099112
  C       4.176544     -0.162915     -0.420893
  C       5.152970      0.948112     -0.029456
  H      -4.488793      1.719679      0.335312
  H      -5.028971      0.833283     -1.115664
  H      -6.014660      0.807129      0.372687
  H      -4.823394     -1.354022      0.175043
  H      -4.187521     -0.467707      1.566721
  H      -2.859605     -0.626882     -1.211064
  H      -2.427164     -1.605560      0.198001
  H      -2.224837      1.464196      0.047102
  H      -1.780852      0.485939      1.452010
  H      -0.465084      0.302344     -1.331775
  H       0.156466      1.245467      0.028577
  H       0.420190     -0.858764      1.381126
  H      -0.209128     -1.813121      0.031862
  H       2.190769     -2.013826      0.012911
  H       1.709002     -1.082159     -1.411416
  H       2.777137      0.146544      1.204753
  H       2.393225      1.046551     -0.268625
  H       4.549010     -1.133882     -0.039916
  H       4.148364     -0.260277     -1.523777
  H       6.168413      0.752296     -0.418779
  H       4.824824      1.926302     -0.428011
  H       5.227494      1.046376      1.069795
32
Coordinates from ORCA-job orca3 E -393.747786780362
  C      -4.979306      0.790864     -0.007647
  C      -4.233446     -0.462872      0.459916
  C      -2.813379     -0.613543     -0.105374
  C      -1.831477      0.476492      0.341753
  C      -0.411881      0.333987     -0.226468
  C       0.358176     -0.894315      0.274676
  C       1.772999     -1.039316     -0.303193
  C       2.753989      0.067807      0.098232
  C       4.176228     -0.163213     -0.421690
  C       5.153427      0.946424     -0.028480
  H      -4.490923      1.717974      0.341686
  H      -5.028435      0.835274     -1.112302
  H      -6.015596      0.802823      0.374906
  H      -4.821636     -1.355837      0.174596
  H      -4.184872     -0.470998      1.566733
  H      -2.860828     -0.625277     -1.213237
  H      -2.424925     -1.604469      0.194168
  H      -2.225767      1.465681      0.044306
  H      -1.781535      0.488034      1.449260
  H      -0.463271      0.303019     -1.333533
  H       0.156271      1.247965      0.026574
  H       0.416898     -0.857086      1.381088
  H      -0.210762     -1.810097      0.030153
  H       2.189490     -2.012795      0.020995
  H       1.711093     -1.088007     -1.408775
  H       2.777609      0.150313      1.203656
  H       2.393135      1.046246     -0.272250
  H       4.547984     -1.135181     -0.042496
  H       4.147907     -0.258673     -1.524794
  H       6.169421      0.749180     -0.415638
  H       4.827295      1.925122     -0.427474
  H       5.226119      1.044475      1.070945
32
Coordinates from ORCA-job orca3 E -393.747787678271
  C      -4.979938      0.789602     -0.005488
  C      -4.232490     -0.463504      0.461182
  C      -2.813362     -0.613212     -0.106534
  C      -1.831758      0.477918      0.338568
  C      -0.411745      0.335037     -0.228633
  C       0.357662     -0.893064      0.273791
  C       1.772933     -1.039176     -0.302493
  C       2.754158      0.067603      0.098848
  C       4.176189     -0.163421     -0.421604
  C       5.153791      0.945391     -0.027177
  H      -4.491984      1.717079      0.343472
  H      -5.030013      0.834242     -1.110104
  H      -6.015955      0.800553      0.377804
  H      -4.820450     -1.357077      0.177243
  H      -4.182047     -0.471126      1.567912
  H      -2.862847     -0.625181     -1.214314
  H      -2.423508     -1.603754      0.192352
  H      -2.226384      1.466433      0.039371
  H      -1.782063      0.491572      1.446087
  H      -0.462008      0.303177     -1.335733
  H       0.155912      1.249352      0.024329
  H       0.415142     -0.855704      1.380278
  H      -0.211434     -1.808584      0.028712
  H       2.188342     -2.012574      0.023393
  H       1.712411     -1.089309     -1.408094
  H       2.778184      0.149793      1.204296
  H       2.393593      1.046251     -0.271415
  H       4.547808     -1.136021     -0.043880
  H       4.147557     -0.257405     -1.524845
  H       6.169611      0.748639     -0.415031
  H       4.827583      1.924801     -0.424379
  H       5.227110      1.041669      1.072380
