! UKS B3LYP def2-SV(P) def2/J D3BJ Opt
%scf Convergence VeryTight
SmearTemp 2000
maxiter 500
end
*xyz 0 1
C -3.018048 -0.107139 0.048174
C -1.666729 0.534738 0.233651
C -0.646255 -0.557306 0.440454
C 0.731704 -0.033939 0.725321
C 1.663203 -0.310072 -0.449571
C 2.950623 0.431401 -0.1322
H -3.162519 -0.800406 0.907741
H -3.116533 -0.635126 -0.925289
H -3.795722 0.687652 0.168784
H -1.723275 1.154038 1.152328
H -1.36615 1.171748 -0.610722
H -1.009653 -1.170738 1.30341
H -0.584538 -1.191583 -0.470105
H 0.751713 1.053769 0.949878
H 1.179172 -0.576536 1.59597
H 1.228405 -0.016084 -1.413886
H 1.816918 -1.413815 -0.470653
H 2.778333 1.274108 0.579845
H 3.377402 0.803616 -1.081681
H 3.611946 -0.298325 0.388388
*
