13
Coordinates from ORCA-job orca0 E -157.518066111720
  C       0.072221     -0.032482     -0.346561
  C       0.505744      1.301146      0.180439
  C      -1.411939     -0.161291     -0.122208
  C       0.859189     -1.191009      0.177817
  H       0.212715     -0.009292     -1.458175
  H       0.923668      1.947962     -0.632595
  H       1.273966      1.243130      0.964704
  H      -1.690969     -0.415783      0.909117
  H      -1.839215      0.850244     -0.332060
  H      -1.879757     -0.839576     -0.877447
  H       0.274192     -1.913705      0.771976
  H       1.724278     -0.894638      0.817025
  H       1.313489     -1.791210     -0.651259
13
Coordinates from ORCA-job orca0 E -157.528965850277
  C       0.086382     -0.025540     -0.368543
  C       0.570535      1.314544      0.159197
  C      -1.432057     -0.154041     -0.137584
  C       0.871930     -1.223132      0.173013
  H       0.218368     -0.007286     -1.469706
  H       0.921924      2.032498     -0.605631
  H       1.284408      1.297459      1.001062
  H      -1.688111     -0.411237      0.904021
  H      -1.902242      0.827293     -0.350640
  H      -1.895177     -0.865797     -0.848203
  H       0.262252     -1.918446      0.779916
  H       1.734677     -0.934860      0.804793
  H       1.304692     -1.837960     -0.640922
13
Coordinates from ORCA-job orca0 E -157.533708624684
  C       0.099870     -0.016847     -0.388364
  C       0.619373      1.306059      0.141775
  C      -1.429490     -0.143394     -0.147301
  C       0.872478     -1.239798      0.166874
  H       0.227249      0.001195     -1.485598
  H       0.900487      2.084582     -0.581076
  H       1.266903      1.306716      1.032730
  H      -1.654589     -0.396391      0.904365
  H      -1.934873      0.813050     -0.370410
  H      -1.880573     -0.902750     -0.810303
  H       0.234419     -1.899232      0.784739
  H       1.733161     -0.949848      0.794793
  H       1.283168     -1.869848     -0.641450
13
Coordinates from ORCA-job orca0 E -157.536295799743
  C       0.113668     -0.010778     -0.402451
  C       0.654836      1.291256      0.130233
  C      -1.416412     -0.132322     -0.152498
  C       0.869264     -1.252132      0.159012
  H       0.238964      0.006399     -1.501053
  H       0.863760      2.120793     -0.556825
  H       1.231423      1.302960      1.065078
  H      -1.618000     -0.361642      0.910079
  H      -1.944933      0.804429     -0.400621
  H      -1.854174     -0.940673     -0.766394
  H       0.209770     -1.878283      0.787718
  H       1.734365     -0.961052      0.779266
  H       1.255052     -1.895459     -0.650771
13
Coordinates from ORCA-job orca0 E -157.537834523167
  C       0.127038     -0.009144     -0.410965
  C       0.680738      1.276195      0.125420
  C      -1.400164     -0.122277     -0.155531
  C       0.867206     -1.263032      0.149203
  H       0.251424      0.006831     -1.510997
  H       0.814910      2.145583     -0.528560
  H       1.187110      1.297049      1.097854
  H      -1.592432     -0.305070      0.918056
  H      -1.938277      0.796883     -0.445596
  H      -1.828113     -0.972690     -0.719131
  H       0.199456     -1.863251      0.793294
  H       1.745366     -0.975626      0.752628
  H       1.223320     -1.917954     -0.664903
13
Coordinates from ORCA-job orca0 E -157.538893577983
  C       0.139679     -0.011222     -0.415719
  C       0.701544      1.263425      0.126205
  C      -1.384963     -0.113476     -0.158276
  C       0.868010     -1.272958      0.139064
  H       0.263886      0.004874     -1.516529
  H       0.758782      2.163798     -0.495614
  H       1.141046      1.291796      1.129565
  H      -1.579431     -0.238050      0.923341
  H      -1.922811      0.788889     -0.498809
  H      -1.808496     -0.995732     -0.675333
  H       0.205044     -1.851349      0.807395
  H       1.767880     -0.994298      0.714280
  H       1.187411     -1.942200     -0.678797
13
Coordinates from ORCA-job orca0 E -157.539694288704
  C       0.151872     -0.015402     -0.418655
  C       0.719443      1.253129      0.130724
  C      -1.371905     -0.105716     -0.162467
  C       0.871264     -1.281182      0.130219
  H       0.277040      0.003280     -1.519488
  H       0.698403      2.177178     -0.457804
  H       1.097298      1.286804      1.158778
  H      -1.575071     -0.174229      0.922468
  H      -1.903741      0.780850     -0.551882
  H      -1.795356     -1.009079     -0.642084
  H       0.224582     -1.834889      0.834814
  H       1.800672     -1.015408      0.663406
  H       1.143081     -1.971840     -0.687254
13
Coordinates from ORCA-job orca0 E -157.540325314072
  C       0.163402     -0.019721     -0.420673
  C       0.733789      1.245406      0.138061
  C      -1.361371     -0.099545     -0.169631
  C       0.875595     -1.286826      0.123835
  H       0.291746      0.004152     -1.520891
  H       0.639499      2.186402     -0.416369
  H       1.060269      1.281517      1.184213
  H      -1.575936     -0.124998      0.914725
  H      -1.885440      0.773662     -0.598551
  H      -1.786037     -1.015046     -0.624417
  H       0.255565     -1.807268      0.876695
  H       1.839886     -1.036995      0.599985
  H       1.086614     -2.007243     -0.686210
13
Coordinates from ORCA-job orca0 E -157.540906427941
  C       0.173225     -0.022972     -0.421776
  C       0.742383      1.240446      0.148246
  C      -1.353773     -0.096278     -0.180142
  C       0.879491     -1.289471      0.120176
  H       0.307684      0.007894     -1.520905
  H       0.589996      2.192990     -0.374256
  H       1.034387      1.276821      1.205645
  H      -1.580835     -0.095541      0.901680
  H      -1.870788      0.767385     -0.636332
  H      -1.778172     -1.017562     -0.623097
  H       0.295651     -1.767358      0.928707
  H       1.879597     -1.057979      0.526710
  H       1.018736     -2.044880     -0.673882
13
Coordinates from ORCA-job orca0 E -157.541554040143
  C       0.180342     -0.025154     -0.421848
  C       0.744159      1.237842      0.161200
  C      -1.349712     -0.096947     -0.193299
  C       0.882184     -1.289284      0.118846
  H       0.323588      0.014094     -1.519439
  H       0.555763      2.199303     -0.334490
  H       1.022468      1.274809      1.223525
  H      -1.589835     -0.086139      0.885381
  H      -1.861363      0.761439     -0.665044
  H      -1.771395     -1.019312     -0.636253
  H       0.342539     -1.718225      0.983997
  H       1.914554     -1.078303      0.448505
  H       0.944289     -2.080627     -0.650307
13
Coordinates from ORCA-job orca0 E -157.542296572194
  C       0.183920     -0.025777     -0.420991
  C       0.738628      1.236925      0.176687
  C      -1.349917     -0.102502     -0.208782
  C       0.882724     -1.286276      0.119739
  H       0.338585      0.023461     -1.516548
  H       0.542818      2.207384     -0.299812
  H       1.028125      1.276591      1.236965
  H      -1.602091     -0.099112      0.867028
  H      -1.860214      0.754785     -0.683221
  H      -1.764863     -1.022565     -0.662395
  H       0.391219     -1.662008      1.036974
  H       1.940625     -1.096249      0.371696
  H       0.868023     -2.111160     -0.616568
13
Coordinates from ORCA-job orca0 E -157.543082415131
  C       0.185605     -0.022545     -0.419818
  C       0.729623      1.235754      0.192719
  C      -1.351049     -0.110407     -0.225790
  C       0.880839     -1.281068      0.122440
  H       0.354112      0.036203     -1.513163
  H       0.543779      2.213873     -0.270998
  H       1.040748      1.273602      1.246471
  H      -1.611558     -0.125523      0.848055
  H      -1.865681      0.747405     -0.693677
  H      -1.753612     -1.029644     -0.692221
  H       0.436749     -1.599867      1.084292
  H       1.957369     -1.111191      0.299068
  H       0.790657     -2.133096     -0.576605
13
Coordinates from ORCA-job orca0 E -157.543843813389
  C       0.187240     -0.016368     -0.418305
  C       0.720327      1.234321      0.208481
  C      -1.349993     -0.117625     -0.242879
  C       0.878430     -1.275265      0.126160
  H       0.370911      0.048722     -1.509610
  H       0.543076      2.217353     -0.246939
  H       1.047694      1.260646      1.256583
  H      -1.617323     -0.150744      0.829174
  H      -1.869997      0.741201     -0.702665
  H      -1.737673     -1.038253     -0.719485
  H       0.484599     -1.535425      1.126761
  H       1.968434     -1.127703      0.225743
  H       0.711857     -2.147363     -0.532245
13
Coordinates from ORCA-job orca0 E -157.544480608626
  C       0.188325     -0.010229     -0.415813
  C       0.709718      1.234473      0.224855
  C      -1.347976     -0.123792     -0.258956
  C       0.877637     -1.269586      0.130747
  H       0.387689      0.057442     -1.505038
  H       0.537203      2.219189     -0.228383
  H       1.048296      1.241426      1.269016
  H      -1.624599     -0.171439      0.810434
  H      -1.869297      0.738613     -0.710968
  H      -1.722770     -1.043734     -0.747144
  H       0.541042     -1.474136      1.164686
  H       1.975668     -1.148422      0.150294
  H       0.636644     -2.156309     -0.482958
13
Coordinates from ORCA-job orca0 E -157.544875922424
  C       0.189510     -0.007700     -0.412672
  C       0.698886      1.236174      0.241512
  C      -1.346506     -0.128076     -0.273534
  C       0.880037     -1.265197      0.135070
  H       0.403438      0.061691     -1.499282
  H       0.522573      2.220512     -0.210721
  H       1.042836      1.225074      1.283726
  H      -1.637045     -0.185448      0.791705
  H      -1.862214      0.740609     -0.720641
  H      -1.714609     -1.042069     -0.777333
  H       0.610992     -1.420242      1.197200
  H       1.979786     -1.176989      0.072220
  H       0.569898     -2.164845     -0.426475
13
Coordinates from ORCA-job orca0 E -157.544986496360
  C       0.185900     -0.004706     -0.408299
  C       0.682357      1.239960      0.255849
  C      -1.350126     -0.133985     -0.285432
  C       0.881188     -1.259825      0.142199
  H       0.413620      0.066034     -1.492086
  H       0.530934      2.221022     -0.210482
  H       1.052220      1.212646      1.287986
  H      -1.650312     -0.218633      0.775440
  H      -1.863643      0.746547     -0.711688
  H      -1.711645     -1.035233     -0.815794
  H       0.660863     -1.380841      1.220048
  H       1.977866     -1.192278      0.022741
  H       0.528361     -2.167212     -0.379708
13
Coordinates from ORCA-job orca0 E -157.544972509894
  C       0.190895     -0.009036     -0.408759
  C       0.686432      1.238578      0.258147
  C      -1.346784     -0.130427     -0.288740
  C       0.884927     -1.262157      0.140416
  H       0.419099      0.064978     -1.491693
  H       0.499841      2.221390     -0.192206
  H       1.036199      1.215999      1.298110
  H      -1.654788     -0.203307      0.770465
  H      -1.851518      0.749181     -0.727378
  H      -1.713538     -1.029798     -0.818596
  H       0.698443     -1.369925      1.226269
  H       1.978562     -1.215740     -0.010516
  H       0.509812     -2.176241     -0.354745
13
Coordinates from ORCA-job orca0 E -157.545002972339
  C       0.187732     -0.007047     -0.408261
  C       0.683797      1.239747      0.255791
  C      -1.349320     -0.131940     -0.286431
  C       0.882851     -1.261184      0.142100
  H       0.415031      0.065316     -1.491714
  H       0.517757      2.221050     -0.205131
  H       1.046804      1.215939      1.290679
  H      -1.652466     -0.215292      0.773556
  H      -1.858633      0.749882     -0.715044
  H      -1.714157     -1.030112     -0.819759
  H       0.675259     -1.379255      1.222923
  H       1.978567     -1.201332      0.012086
  H       0.524361     -2.172276     -0.370022
13
Coordinates from ORCA-job orca0 E -157.545004337253
  C       0.187621     -0.007162     -0.408160
  C       0.683775      1.239894      0.255192
  C      -1.349524     -0.131792     -0.286326
  C       0.882637     -1.261097      0.142601
  H       0.414739      0.065028     -1.491668
  H       0.517620      2.220750     -0.206501
  H       1.048105      1.216389      1.289569
  H      -1.652289     -0.217989      0.773550
  H      -1.858772      0.751155     -0.712625
  H      -1.714749     -1.028559     -0.821777
  H       0.674013     -1.380088      1.223119
  H       1.978527     -1.200546      0.013992
  H       0.525879     -2.172486     -0.370192
