13
Coordinates from ORCA-job orca5 E -157.514804265167
  C      -0.013801      0.075577      0.399739
  C      -0.348355      1.386235     -0.271444
  C       1.360581     -0.419639      0.068919
  C      -1.012493     -0.978134     -0.044105
  H      -0.186800      0.210216      1.494906
  H      -1.452313      1.513981     -0.137465
  H      -0.107453      1.367219     -1.359916
  H       1.359594     -1.460325     -0.340495
  H       1.933230     -0.481087      1.029512
  H       1.920686      0.247782     -0.614047
  H      -0.586168     -1.454504     -0.942256
  H      -1.091176     -1.764691      0.733695
  H      -1.960313     -0.467155     -0.259917
13
Coordinates from ORCA-job orca5 E -157.529071012614
  C      -0.019462      0.055756      0.387227
  C      -0.360328      1.371512     -0.290939
  C       1.414197     -0.413511      0.089966
  C      -1.062726     -1.017386     -0.047311
  H      -0.173779      0.199868      1.477268
  H      -1.425265      1.638924     -0.142397
  H      -0.088838      1.425853     -1.362808
  H       1.454980     -1.441568     -0.313278
  H       1.998822     -0.448442      1.032855
  H       1.954851      0.260166     -0.597410
  H      -0.699043     -1.510032     -0.964568
  H      -1.139331     -1.803249      0.726361
  H      -2.038860     -0.542414     -0.237842
13
Coordinates from ORCA-job orca5 E -157.534400068809
  C      -0.034264      0.046604      0.376243
  C      -0.368155      1.348746     -0.312124
  C       1.422444     -0.407710      0.108667
  C      -1.073352     -1.044690     -0.049207
  H      -0.174033      0.199345      1.462816
  H      -1.382337      1.739130     -0.136522
  H      -0.046878      1.457298     -1.360715
  H       1.471543     -1.434782     -0.292405
  H       2.019601     -0.414576      1.037443
  H       1.940505      0.262011     -0.598970
  H      -0.752134     -1.523658     -0.992449
  H      -1.131439     -1.839704      0.716606
  H      -2.076283     -0.612539     -0.202256
13
Coordinates from ORCA-job orca5 E -157.536879364567
  C      -0.050061      0.042729      0.362881
  C      -0.375786      1.330014     -0.334451
  C       1.417440     -0.405615      0.122112
  C      -1.070955     -1.061969     -0.051104
  H      -0.186901      0.203332      1.449436
  H      -1.345071      1.805799     -0.129088
  H      -0.003208      1.477330     -1.358890
  H       1.469348     -1.438067     -0.266516
  H       2.018929     -0.380476      1.046940
  H       1.921972      0.250558     -0.608744
  H      -0.791669     -1.507066     -1.023850
  H      -1.092407     -1.876583      0.697270
  H      -2.096412     -0.664509     -0.148871
13
Coordinates from ORCA-job orca5 E -157.538269497348
  C      -0.064378      0.041718      0.350376
  C      -0.383641      1.319473     -0.357149
  C       1.407109     -0.407359      0.131268
  C      -1.064225     -1.074064     -0.053001
  H      -0.207202      0.209666      1.436362
  H      -1.314363      1.853008     -0.122711
  H       0.033953      1.496940     -1.357883
  H       1.461491     -1.449746     -0.230791
  H       2.005873     -0.346756      1.056059
  H       1.907401      0.226505     -0.622459
  H      -0.826460     -1.474865     -1.055553
  H      -1.034773     -1.913612      0.667837
  H      -2.105566     -0.705434     -0.085230
13
Coordinates from ORCA-job orca5 E -157.539144162092
  C      -0.075555      0.040745      0.340593
  C      -0.390102      1.312957     -0.377546
  C       1.397374     -0.410278      0.138324
  C      -1.060146     -1.083107     -0.056555
  H      -0.229332      0.216785      1.424437
  H      -1.289497      1.885298     -0.117267
  H       0.065530      1.515856     -1.355535
  H       1.456215     -1.465935     -0.182622
  H       1.992483     -0.307792      1.062100
  H       1.896523      0.193806     -0.640395
  H      -0.864595     -1.434952     -1.086381
  H      -0.973290     -1.948941      0.627509
  H      -2.110389     -0.738968     -0.019537
13
Coordinates from ORCA-job orca5 E -157.539709217823
  C      -0.083270      0.038273      0.334390
  C      -0.394264      1.307432     -0.392539
  C       1.390456     -0.412754      0.144865
  C      -1.060721     -1.090016     -0.063300
  H      -0.249996      0.221920      1.415099
  H      -1.268782      1.906507     -0.110528
  H       0.092911      1.533123     -1.349273
  H       1.456278     -1.483825     -0.118418
  H       1.986409     -0.256906      1.061066
  H       1.884483      0.152033     -0.665833
  H      -0.905626     -1.392456     -1.115633
  H      -0.919100     -1.980492      0.577836
  H      -2.113560     -0.767364      0.039394
13
Coordinates from ORCA-job orca5 E -157.540138747529
  C      -0.087815      0.033658      0.331931
  C      -0.396190      1.302993     -0.398661
  C       1.386313     -0.414665      0.150863
  C      -1.064455     -1.095018     -0.074054
  H      -0.266889      0.220915      1.409772
  H      -1.251847      1.920004     -0.098959
  H       0.115299      1.549892     -1.336772
  H       1.461965     -1.501085     -0.035794
  H       1.990808     -0.189677      1.047330
  H       1.865974      0.097381     -0.702204
  H      -0.940951     -1.353666     -1.142222
  H      -0.881311     -2.005941      0.525644
  H      -2.115683     -0.789314      0.080253
13
Coordinates from ORCA-job orca5 E -157.540635432534
  C      -0.089437      0.027290      0.332900
  C      -0.396024      1.300417     -0.395268
  C       1.384202     -0.416272      0.155531
  C      -1.069510     -1.098154     -0.087615
  H      -0.278288      0.212878      1.408954
  H      -1.239588      1.927360     -0.082354
  H       0.131109      1.566216     -1.319288
  H       1.472577     -1.513379      0.057808
  H       2.002914     -0.112783      1.018892
  H       1.840882      0.031962     -0.744746
  H      -0.963394     -1.323498     -1.165155
  H      -0.862431     -2.024412      0.479337
  H      -2.117791     -0.802152      0.098129
13
Coordinates from ORCA-job orca5 E -157.541108995110
  C      -0.091054      0.020902      0.333802
  C      -0.395857      1.297670     -0.392288
  C       1.382071     -0.418017      0.160252
  C      -1.074733     -1.101181     -0.101107
  H      -0.289797      0.205184      1.407874
  H      -1.226971      1.934134     -0.065713
  H       0.146870      1.581727     -1.301570
  H       1.485059     -1.518228      0.151692
  H       2.013011     -0.038977      0.984385
  H       1.816234     -0.037300     -0.781276
  H      -0.986781     -1.292520     -1.186828
  H      -0.843508     -2.041615      0.431491
  H      -2.119323     -0.816304      0.116412
13
Coordinates from ORCA-job orca5 E -157.541510133608
  C      -0.092575      0.014391      0.334739
  C      -0.395239      1.294651     -0.389827
  C       1.379758     -0.419676      0.165224
  C      -1.080178     -1.104264     -0.114462
  H      -0.300992      0.197755      1.406689
  H      -1.213761      1.940361     -0.049870
  H       0.163464      1.596322     -1.283547
  H       1.499040     -1.515333      0.245019
  H       2.020662      0.031303      0.944420
  H       1.791604     -0.109187     -0.811498
  H      -1.011912     -1.260516     -1.207122
  H      -0.824455     -2.057963      0.381572
  H      -2.120196     -0.832368      0.135789
13
Coordinates from ORCA-job orca5 E -157.541790714413
  C      -0.093905      0.007876      0.335878
  C      -0.393961      1.291370     -0.387865
  C       1.377234     -0.421191      0.170652
  C      -1.085704     -1.107200     -0.127540
  H      -0.311630      0.190643      1.405629
  H      -1.200506      1.945879     -0.036097
  H       0.181282      1.609854     -1.265148
  H       1.514023     -1.504980      0.336925
  H       2.025975      0.097255      0.899848
  H       1.766850     -0.182889     -0.835122
  H      -1.039400     -1.226811     -1.225793
  H      -0.804889     -2.073394      0.328771
  H      -2.120149     -0.850937      0.156986
13
Coordinates from ORCA-job orca5 E -157.541921131308
  C      -0.095149      0.001835      0.337219
  C      -0.391769      1.287969     -0.386587
  C       1.374253     -0.422616      0.176837
  C      -1.090695     -1.109600     -0.139938
  H      -0.321372      0.184306      1.404877
  H      -1.188265      1.950672     -0.026899
  H       0.201181      1.622077     -1.246305
  H       1.528533     -1.487984      0.426100
  H       2.028954      0.157402      0.852431
  H       1.741942     -0.257261     -0.851723
  H      -1.070810     -1.189739     -1.242326
  H      -0.783240     -2.087770      0.271402
  H      -2.118345     -0.873815      0.182037
13
Coordinates from ORCA-job orca5 E -157.541939994559
  C      -0.095452      0.001100      0.337876
  C      -0.390038      1.287261     -0.386535
  C       1.372991     -0.422925      0.179300
  C      -1.090956     -1.109354     -0.142275
  H      -0.322840      0.183577      1.405321
  H      -1.187606      1.951202     -0.031182
  H       0.209214      1.624396     -1.240935
  H       1.529925     -1.483306      0.447489
  H       2.029298      0.170123      0.842010
  H       1.734585     -0.275108     -0.854178
  H      -1.083413     -1.175616     -1.245637
  H      -0.774195     -2.091855      0.251829
  H      -2.116295     -0.884021      0.194044
13
Coordinates from ORCA-job orca5 E -157.541957450600
  C      -0.095353      0.001572      0.338956
  C      -0.386967      1.287391     -0.386173
  C       1.372206     -0.423255      0.182058
  C      -1.090259     -1.107721     -0.142766
  H      -0.322237      0.183959      1.406705
  H      -1.192578      1.948903     -0.044323
  H       0.218654      1.625500     -1.236018
  H       1.528648     -1.480989      0.460757
  H       2.030012      0.176095      0.837606
  H       1.729094     -0.285811     -0.854560
  H      -1.098503     -1.159473     -1.246854
  H      -0.764419     -2.095022      0.232051
  H      -2.113080     -0.895674      0.209687
13
Coordinates from ORCA-job orca5 E -157.541967413328
  C      -0.094792      0.002318      0.339904
  C      -0.383903      1.288312     -0.385161
  C       1.372587     -0.423734      0.183813
  C      -1.089944     -1.105696     -0.142285
  H      -0.320667      0.184449      1.408074
  H      -1.200720      1.943596     -0.058171
  H       0.225676      1.626381     -1.232331
  H       1.527619     -1.480761      0.465778
  H       2.031146      0.177050      0.837220
  H       1.727642     -0.289946     -0.853916
  H      -1.109960     -1.147734     -1.246662
  H      -0.758799     -2.096205      0.219307
  H      -2.110667     -0.902554      0.221556
13
Coordinates from ORCA-job orca5 E -157.541975248681
  C      -0.093811      0.003009      0.340717
  C      -0.380483      1.289768     -0.383535
  C       1.373641     -0.424465      0.185073
  C      -1.090246     -1.103367     -0.141696
  H      -0.318718      0.184751      1.409293
  H      -1.211427      1.934997     -0.072637
  H       0.232360      1.628071     -1.228270
  H       1.527440     -1.481107      0.468888
  H       2.032573      0.177032      0.837372
  H       1.728196     -0.292996     -0.853096
  H      -1.120579     -1.137153     -1.246149
  H      -0.755085     -2.096430      0.208931
  H      -2.108641     -0.906635      0.232235
13
Coordinates from ORCA-job orca5 E -157.541980727324
  C      -0.092582      0.003507      0.341159
  C      -0.377353      1.291365     -0.381778
  C       1.374906     -0.425331      0.185696
  C      -1.091059     -1.101204     -0.141261
  H      -0.316871      0.184855      1.410027
  H      -1.222513      1.924540     -0.084909
  H       0.238064      1.630708     -1.224127
  H       1.527981     -1.481711      0.470649
  H       2.033920      0.176712      0.837373
  H       1.730021     -0.295431     -0.852450
  H      -1.128770     -1.129186     -1.245646
  H      -0.753281     -2.095834      0.202122
  H      -2.107242     -0.907516      0.240273
13
Coordinates from ORCA-job orca5 E -157.541983915478
  C      -0.091647      0.003696      0.341028
  C      -0.375800      1.292314     -0.380876
  C       1.375683     -0.425983      0.185569
  C      -1.091838     -1.100070     -0.141106
  H      -0.315884      0.184883      1.409980
  H      -1.229564      1.916813     -0.090461
  H       0.241155      1.633525     -1.221203
  H       1.528631     -1.482276      0.470826
  H       2.034669      0.176296      0.837069
  H       1.731780     -0.296673     -0.852311
  H      -1.131720     -1.126543     -1.245423
  H      -0.753401     -2.094879      0.200907
  H      -2.106845     -0.905628      0.243129
13
Coordinates from ORCA-job orca5 E -157.541986232418
  C      -0.091422      0.003682      0.340599
  C      -0.376011      1.292276     -0.381159
  C       1.375659     -0.426163      0.185088
  C      -1.092033     -1.100117     -0.141070
  H      -0.315873      0.185003      1.409502
  H      -1.230918      1.914767     -0.089846
  H       0.241959      1.635466     -1.219847
  H       1.528707     -1.482528      0.470072
  H       2.034748      0.175984      0.836625
  H       1.732155     -0.296716     -0.852664
  H      -1.130394     -1.128206     -1.245378
  H      -0.754243     -2.094319      0.203305
  H      -2.107115     -0.903655      0.241899
13
Coordinates from ORCA-job orca5 E -157.541988685244
  C      -0.091278      0.003705      0.340108
  C      -0.376434      1.292023     -0.381787
  C       1.375451     -0.426314      0.184444
  C      -1.092120     -1.100259     -0.140791
  H      -0.315754      0.185286      1.409016
  H      -1.232870      1.912417     -0.090503
  H       0.244644      1.638920     -1.216587
  H       1.528516     -1.482669      0.469498
  H       2.034999      0.175808      0.835555
  H       1.731684     -0.297152     -0.853470
  H      -1.129284     -1.130083     -1.245075
  H      -0.754970     -2.093928      0.205763
  H      -2.107364     -0.902280      0.240955
13
Coordinates from ORCA-job orca5 E -157.541999719173
  C      -0.090280      0.003887      0.337732
  C      -0.377727      1.290975     -0.384893
  C       1.374712     -0.427441      0.180906
  C      -1.092909     -1.100417     -0.138676
  H      -0.314073      0.186875      1.406904
  H      -1.248270      1.895654     -0.102491
  H       0.264374      1.661299     -1.193062
  H       1.527783     -1.483188      0.468262
  H       2.037183      0.175632      0.828216
  H       1.728349     -0.301791     -0.858467
  H      -1.127621     -1.136827     -1.242766
  H      -0.758081     -2.092220      0.215433
  H      -2.108221     -0.896965      0.240028
13
Coordinates from ORCA-job orca5 E -157.542024991677
  C      -0.086761      0.004407      0.330683
  C      -0.379227      1.288315     -0.394311
  C       1.373468     -0.431544      0.170373
  C      -1.095580     -1.099843     -0.132004
  H      -0.307548      0.191915      1.400839
  H      -1.295091      1.840804     -0.150829
  H       0.320488      1.731727     -1.112190
  H       1.526412     -1.484616      0.467425
  H       2.044563      0.175929      0.804711
  H       1.718682     -0.319068     -0.873645
  H      -1.127558     -1.152557     -1.235321
  H      -0.766614     -2.087149      0.239715
  H      -2.110015     -0.882842      0.241682
13
Coordinates from ORCA-job orca5 E -157.542039114220
  C      -0.082503      0.005171      0.323144
  C      -0.378777      1.285805     -0.404858
  C       1.372844     -0.436302      0.160068
  C      -1.097857     -1.098434     -0.125707
  H      -0.300394      0.197812      1.394136
  H      -1.334891      1.784691     -0.203808
  H       0.363057      1.801916     -1.024459
  H       1.525068     -1.486446      0.467637
  H       2.052548      0.175503      0.781092
  H       1.709863     -0.337960     -0.888346
  H      -1.127143     -1.167661     -1.227997
  H      -0.775299     -2.081023      0.263674
  H      -2.111296     -0.867596      0.242550
13
Coordinates from ORCA-job orca5 E -157.542036704358
  C      -0.077636      0.006249      0.315050
  C      -0.376697      1.283243     -0.416853
  C       1.372667     -0.441646      0.149931
  C      -1.099512     -1.096210     -0.119814
  H      -0.292677      0.204757      1.386748
  H      -1.366917      1.728608     -0.259240
  H       0.391597      1.870694     -0.930946
  H       1.523474     -1.488690      0.468634
  H       2.061178      0.174175      0.757287
  H       1.701500     -0.358241     -0.902671
  H      -1.125470     -1.182796     -1.220790
  H      -0.784223     -2.073638      0.288012
  H      -2.112066     -0.851030      0.241779
13
Coordinates from ORCA-job orca5 E -157.542045121615
  C      -0.075948      0.006869      0.312412
  C      -0.375863      1.282088     -0.421479
  C       1.372638     -0.443591      0.146386
  C      -1.099574     -1.094982     -0.117328
  H      -0.289111      0.207965      1.384496
  H      -1.377013      1.708962     -0.281585
  H       0.398767      1.893942     -0.896088
  H       1.522162     -1.490127      0.467593
  H       2.064609      0.172273      0.749808
  H       1.698335     -0.364077     -0.907596
  H      -1.124568     -1.187819     -1.217803
  H      -0.787202     -2.070740      0.296676
  H      -2.112012     -0.845289      0.241635
13
Coordinates from ORCA-job orca5 E -157.542120488707
  C      -0.071912      0.008812      0.306618
  C      -0.373214      1.278344     -0.434270
  C       1.372747     -0.448831      0.137272
  C      -1.098568     -1.090641     -0.109612
  H      -0.276976      0.218268      1.380138
  H      -1.399976      1.658345     -0.350879
  H       0.410589      1.952194     -0.797906
  H       1.517380     -1.494876      0.463310
  H       2.074714      0.164963      0.731303
  H       1.688714     -0.377495     -0.920468
  H      -1.123232     -1.198064     -1.208881
  H      -0.794053     -2.063446      0.316891
  H      -2.110993     -0.832098      0.243610
13
Coordinates from ORCA-job orca5 E -157.542301425349
  C      -0.070155      0.010430      0.304387
  C      -0.370441      1.273484     -0.446178
  C       1.373089     -0.453348      0.129364
  C      -1.096193     -1.085693     -0.099944
  H      -0.260601      0.230524      1.379953
  H      -1.414035      1.618050     -0.436015
  H       0.413321      1.998890     -0.697826
  H       1.511798     -1.499691      0.458488
  H       2.084949      0.156600      0.715617
  H       1.676916     -0.386726     -0.932207
  H      -1.126927     -1.199890     -1.198805
  H      -0.797611     -2.059981      0.327067
  H      -2.108890     -0.827174      0.253225
13
Coordinates from ORCA-job orca5 E -157.542545156322
  C      -0.073713      0.008311      0.308819
  C      -0.368057      1.271314     -0.446612
  C       1.374162     -0.454096      0.126402
  C      -1.097855     -1.084819     -0.092886
  H      -0.248300      0.234800      1.386027
  H      -1.412680      1.607964     -0.510332
  H       0.419237      2.012457     -0.641076
  H       1.515058     -1.496849      0.465796
  H       2.087373      0.162365      0.704131
  H       1.669258     -0.394810     -0.937493
  H      -1.147875     -1.182512     -1.193110
  H      -0.793834     -2.067879      0.308582
  H      -2.107556     -0.840773      0.278878
13
Coordinates from ORCA-job orca5 E -157.542689147170
  C      -0.072996      0.004640      0.307390
  C      -0.357920      1.272083     -0.448784
  C       1.377460     -0.458902      0.118942
  C      -1.104727     -1.083200     -0.088030
  H      -0.236341      0.235580      1.385556
  H      -1.403505      1.572981     -0.600105
  H       0.408983      2.052581     -0.542821
  H       1.526591     -1.489492      0.488852
  H       2.090528      0.178813      0.673438
  H       1.664389     -0.428476     -0.947762
  H      -1.174207     -1.166211     -1.188427
  H      -0.795845     -2.072065      0.293764
  H      -2.107192     -0.842856      0.305112
13
Coordinates from ORCA-job orca5 E -157.542744899234
  C      -0.078989     -0.000007      0.309611
  C      -0.356384      1.274591     -0.440995
  C       1.378133     -0.456584      0.117548
  C      -1.111482     -1.088949     -0.086523
  H      -0.237117      0.227118      1.387716
  H      -1.392529      1.590824     -0.617673
  H       0.422852      2.040508     -0.550077
  H       1.536084     -1.482766      0.495322
  H       2.077879      0.194359      0.673854
  H       1.672677     -0.428323     -0.946285
  H      -1.195368     -1.154694     -1.187017
  H      -0.791842     -2.081548      0.276018
  H      -2.108696     -0.859053      0.325627
13
Coordinates from ORCA-job orca5 E -157.542764859374
  C      -0.076732      0.000366      0.305976
  C      -0.353711      1.274242     -0.444458
  C       1.378685     -0.458942      0.114575
  C      -1.111520     -1.087454     -0.085962
  H      -0.235196      0.227488      1.384576
  H      -1.392181      1.579280     -0.627716
  H       0.414087      2.054668     -0.526522
  H       1.535435     -1.484494      0.494499
  H       2.078680      0.192928      0.669512
  H       1.673640     -0.433782     -0.949335
  H      -1.193123     -1.159446     -1.186132
  H      -0.794280     -2.077781      0.284723
  H      -2.108564     -0.851599      0.323390
13
Coordinates from ORCA-job orca5 E -157.542769462828
  C      -0.076292      0.000492      0.304591
  C      -0.353906      1.273827     -0.445017
  C       1.378754     -0.459029      0.114212
  C      -1.111338     -1.087507     -0.086391
  H      -0.235745      0.226222      1.383522
  H      -1.393182      1.581335     -0.620667
  H       0.413726      2.054040     -0.531450
  H       1.534518     -1.485712      0.491543
  H       2.077129      0.191700      0.672526
  H       1.675957     -0.431161     -0.949050
  H      -1.190802     -1.163101     -1.186451
  H      -0.794805     -2.076220      0.289147
  H      -2.108796     -0.849412      0.320610
13
Coordinates from ORCA-job orca5 E -157.542771966425
  C      -0.076081      0.000392      0.303529
  C      -0.354237      1.273434     -0.445100
  C       1.378976     -0.458864      0.114194
  C      -1.111458     -1.087761     -0.086966
  H      -0.236201      0.224388      1.382879
  H      -1.393696      1.584656     -0.613941
  H       0.414082      2.052357     -0.538015
  H       1.534149     -1.486332      0.489625
  H       2.075400      0.191344      0.675542
  H       1.678315     -0.428738     -0.948410
  H      -1.189997     -1.165699     -1.186902
  H      -0.795038     -2.075319      0.291676
  H      -2.108993     -0.848382      0.319015
13
Coordinates from ORCA-job orca5 E -157.542772854890
  C      -0.075983      0.000344      0.303231
  C      -0.354384      1.273344     -0.444980
  C       1.379182     -0.458762      0.114351
  C      -1.111572     -1.087794     -0.087213
  H      -0.236181      0.223477      1.382797
  H      -1.393791      1.585742     -0.612256
  H       0.414093      2.051849     -0.540513
  H       1.534102     -1.486455      0.489254
  H       2.074973      0.191267      0.676672
  H       1.679187     -0.427959     -0.948044
  H      -1.190397     -1.166198     -1.187080
  H      -0.795055     -2.075147      0.291907
  H      -2.108955     -0.848231      0.319002
13
Coordinates from ORCA-job orca5 E -157.542773778770
  C      -0.075806      0.000321      0.302900
  C      -0.354550      1.273313     -0.444778
  C       1.379596     -0.458624      0.114741
  C      -1.111762     -1.087740     -0.087594
  H      -0.235919      0.222019      1.382810
  H      -1.393796      1.586829     -0.611167
  H       0.413748      2.051665     -0.543391
  H       1.534085     -1.486452      0.489411
  H       2.074804      0.191227      0.677948
  H       1.680259     -0.427421     -0.947448
  H      -1.191775     -1.166285     -1.187342
  H      -0.794962     -2.075103      0.291309
  H      -2.108702     -0.848273      0.319727
13
Coordinates from ORCA-job orca5 E -157.542774450270
  C      -0.075734      0.000394      0.302893
  C      -0.354539      1.273394     -0.444694
  C       1.379770     -0.458598      0.114963
  C      -1.111789     -1.087614     -0.087693
  H      -0.235679      0.221532      1.382933
  H      -1.393730      1.586577     -0.612045
  H       0.413350      2.052123     -0.543545
  H       1.534021     -1.486350      0.489926
  H       2.075130      0.191181      0.678045
  H       1.680408     -0.427705     -0.947242
  H      -1.192749     -1.165767     -1.187393
  H      -0.794808     -2.075225      0.290429
  H      -2.108432     -0.848466      0.320549
13
Coordinates from ORCA-job orca5 E -157.542775530468
  C      -0.075546      0.000778      0.303124
  C      -0.354311      1.273769     -0.444513
  C       1.380242     -0.458589      0.115693
  C      -1.111801     -1.087087     -0.087926
  H      -0.234763      0.220271      1.383529
  H      -1.393360      1.584677     -0.616765
  H       0.411701      2.054478     -0.542098
  H       1.533769     -1.485731      0.492594
  H       2.076765      0.191194      0.677296
  H       1.680280     -0.429840     -0.946735
  H      -1.196302     -1.163149     -1.187495
  H      -0.794099     -2.075862      0.286560
  H      -2.107358     -0.849433      0.323862
13
Coordinates from ORCA-job orca5 E -157.542776387477
  C      -0.075577      0.000910      0.303285
  C      -0.354229      1.273835     -0.444521
  C       1.380186     -0.458615      0.115720
  C      -1.111718     -1.086981     -0.087869
  H      -0.234628      0.220334      1.383708
  H      -1.393308      1.584037     -0.617829
  H       0.411446      2.054952     -0.541318
  H       1.533625     -1.485624      0.493038
  H       2.077090      0.191150      0.676884
  H       1.680027     -0.430369     -0.946777
  H      -1.196546     -1.162562     -1.187448
  H      -0.793944     -2.075976      0.285973
  H      -2.107205     -0.849616      0.324282
13
Coordinates from ORCA-job orca5 E -157.542783121361
  C      -0.076064      0.002603      0.305749
  C      -0.353179      1.274500     -0.444646
  C       1.379222     -0.459022      0.115693
  C      -1.110762     -1.085738     -0.087102
  H      -0.232757      0.221330      1.386373
  H      -1.392714      1.575936     -0.630151
  H       0.408190      2.060778     -0.531317
  H       1.532097     -1.484025      0.498966
  H       2.080976      0.190968      0.670773
  H       1.676459     -0.437782     -0.947654
  H      -1.198073     -1.155164     -1.186938
  H      -0.792328     -2.077257      0.279230
  H      -2.105849     -0.851652      0.328150
13
Coordinates from ORCA-job orca5 E -157.542784105447
  C      -0.076112      0.002768      0.306126
  C      -0.353236      1.274473     -0.444547
  C       1.379086     -0.459048      0.115610
  C      -1.110720     -1.085644     -0.087014
  H      -0.232439      0.221281      1.386816
  H      -1.392884      1.575466     -0.630203
  H       0.407968      2.060855     -0.531577
  H       1.531968     -1.484030      0.498984
  H       2.081097      0.190768      0.670604
  H       1.676298     -0.437953     -0.947735
  H      -1.197428     -1.154721     -1.186921
  H      -0.792356     -2.077192      0.279271
  H      -2.106025     -0.851547      0.327713
13
Coordinates from ORCA-job orca5 E -157.542786997132
  C      -0.076247      0.003281      0.307728
  C      -0.353791      1.274090     -0.444089
  C       1.378609     -0.459176      0.115100
  C      -1.110800     -1.085400     -0.086682
  H      -0.230707      0.220600      1.388805
  H      -1.393915      1.574608     -0.628109
  H       0.407047      2.060391     -0.534707
  H       1.531739     -1.484309      0.498136
  H       2.080999      0.189808      0.670738
  H       1.676075     -0.437714     -0.948092
  H      -1.193395     -1.153796     -1.186955
  H      -0.792968     -2.076534      0.280991
  H      -2.107428     -0.850372      0.324263
13
Coordinates from ORCA-job orca5 E -157.542788017423
  C      -0.076218      0.003165      0.307531
  C      -0.353859      1.274053     -0.444047
  C       1.378681     -0.459155      0.115159
  C      -1.110826     -1.085438     -0.086703
  H      -0.230776      0.220539      1.388615
  H      -1.393927      1.574966     -0.627749
  H       0.407229      2.060069     -0.535195
  H       1.531755     -1.484465      0.497712
  H       2.080763      0.189752      0.671232
  H       1.676213     -0.437180     -0.948021
  H      -1.193483     -1.154110     -1.186952
  H      -0.792924     -2.076445      0.281280
  H      -2.107409     -0.850275      0.324265
13
Coordinates from ORCA-job orca5 E -157.542796780947
  C      -0.075889      0.001529      0.305054
  C      -0.354744      1.273522     -0.443453
  C       1.379741     -0.459005      0.115879
  C      -1.111492     -1.086166     -0.087066
  H      -0.231031      0.219483      1.386307
  H      -1.393967      1.579931     -0.622730
  H       0.409082      2.056333     -0.540998
  H       1.532473     -1.486096      0.493387
  H       2.077744      0.189775      0.676669
  H       1.677445     -0.431700     -0.947299
  H      -1.194065     -1.157948     -1.187109
  H      -0.792475     -2.075355      0.284952
  H      -2.107604     -0.848828      0.323532
13
Coordinates from ORCA-job orca5 E -157.542798192108
  C      -0.075858      0.001350      0.304789
  C      -0.354907      1.273546     -0.443215
  C       1.379929     -0.459018      0.116018
  C      -1.111631     -1.086308     -0.087086
  H      -0.230871      0.219392      1.386099
  H      -1.394080      1.580337     -0.622214
  H       0.409149      2.056039     -0.541730
  H       1.532528     -1.486341      0.492886
  H       2.077531      0.189707      0.677280
  H       1.677413     -0.431196     -0.947230
  H      -1.193887     -1.158310     -1.187139
  H      -0.792384     -2.075223      0.285423
  H      -2.107712     -0.848500      0.323245
13
Coordinates from ORCA-job orca5 E -157.542801527735
  C      -0.075837      0.000939      0.304089
  C      -0.355400      1.273753     -0.442501
  C       1.380527     -0.459154      0.116461
  C      -1.112064     -1.086880     -0.087122
  H      -0.230154      0.219443      1.385543
  H      -1.394445      1.581302     -0.620993
  H       0.408819      2.055884     -0.542903
  H       1.532584     -1.486876      0.492280
  H       2.077445      0.189666      0.678181
  H       1.676750     -0.430993     -0.947183
  H      -1.192914     -1.159095     -1.187281
  H      -0.791992     -2.075042      0.286439
  H      -2.108099     -0.847470      0.322116
13
Coordinates from ORCA-job orca5 E -157.542802949599
  C      -0.075862      0.001020      0.304113
  C      -0.355444      1.273865     -0.442351
  C       1.380563     -0.459240      0.116483
  C      -1.112037     -1.086947     -0.087036
  H      -0.229944      0.219701      1.385581
  H      -1.394535      1.580895     -0.621515
  H       0.408442      2.056382     -0.542225
  H       1.532356     -1.486921      0.492508
  H       2.077767      0.189579      0.677810
  H       1.676379     -0.431573     -0.947294
  H      -1.192548     -1.158910     -1.187245
  H      -0.791824     -2.075105      0.286337
  H      -2.108095     -0.847271      0.321960
13
Coordinates from ORCA-job orca5 E -157.542809973673
  C      -0.076015      0.001891      0.304703
  C      -0.355642      1.274726     -0.441357
  C       1.380678     -0.460081      0.116436
  C      -1.111624     -1.087410     -0.086314
  H      -0.228293      0.222082      1.386168
  H      -1.395080      1.577091     -0.626542
  H       0.404644      2.061451     -0.534720
  H       1.530384     -1.486753      0.495998
  H       2.081011      0.189337      0.672969
  H       1.672927     -0.438273     -0.948475
  H      -1.189355     -1.156927     -1.186989
  H      -0.790497     -2.075927      0.284625
  H      -2.107918     -0.845731      0.320624
13
Coordinates from ORCA-job orca5 E -157.542811254942
  C      -0.075948      0.001958      0.304853
  C      -0.355636      1.274720     -0.441259
  C       1.380611     -0.460123      0.116326
  C      -1.111507     -1.087317     -0.086223
  H      -0.228310      0.222139      1.386301
  H      -1.395076      1.576701     -0.627076
  H       0.404422      2.061715     -0.534230
  H       1.530204     -1.486787      0.495976
  H       2.081147      0.189218      0.672724
  H       1.672914     -0.438360     -0.948566
  H      -1.189201     -1.156915     -1.186902
  H      -0.790548     -2.075926      0.284639
  H      -2.107852     -0.845547      0.320563
13
Coordinates from ORCA-job orca5 E -157.542828701551
  C      -0.074050      0.002876      0.308202
  C      -0.355948      1.274454     -0.438540
  C       1.379542     -0.461228      0.113714
  C      -1.109167     -1.085742     -0.084392
  H      -0.228829      0.222785      1.389104
  H      -1.394921      1.570263     -0.636264
  H       0.398627      2.067647     -0.523785
  H       1.526997     -1.487217      0.496349
  H       2.084542      0.187391      0.666005
  H       1.672234     -0.441035     -0.950949
  H      -1.183974     -1.158974     -1.185261
  H      -0.792822     -2.075940      0.286517
  H      -2.107013     -0.839806      0.316427
