13
Coordinates from ORCA-job orca8 E -157.517673108129
  C      -0.078024      0.057177      0.373548
  C       1.265433     -0.608904      0.147611
  C      -1.175437     -0.828589     -0.146067
  C      -0.094988      1.436795     -0.232256
  H      -0.249116      0.163443      1.475314
  H       1.875218     -0.458865      1.074147
  H       1.106826     -1.685632     -0.082089
  H      -0.962242     -1.860898      0.229844
  H      -1.196159     -0.908035     -1.249728
  H      -2.174879     -0.573486      0.259115
  H      -0.392092      2.215481      0.515502
  H       0.958985      1.702901     -0.500140
  H      -0.705230      1.500086     -1.157410
13
Coordinates from ORCA-job orca8 E -157.530247435421
  C      -0.080265      0.036042      0.390870
  C       1.280696     -0.639122      0.202354
  C      -1.213146     -0.843352     -0.142017
  C      -0.089432      1.451005     -0.230432
  H      -0.256084      0.149667      1.481830
  H       1.977434     -0.452950      1.040599
  H       1.228368     -1.703604     -0.084371
  H      -1.069166     -1.879875      0.228177
  H      -1.220101     -0.907736     -1.245832
  H      -2.207882     -0.533181      0.228284
  H      -0.423585      2.222840      0.489288
  H       0.944487      1.746977     -0.498326
  H      -0.693028      1.504761     -1.153032
13
Coordinates from ORCA-job orca8 E -157.535443196870
  C      -0.077362      0.017574      0.407428
  C       1.269666     -0.660787      0.240406
  C      -1.225677     -0.849997     -0.136705
  C      -0.082191      1.446011     -0.222362
  H      -0.250333      0.139444      1.494669
  H       2.040937     -0.422510      0.985946
  H       1.278980     -1.709620     -0.089165
  H      -1.141779     -1.887597      0.235845
  H      -1.210959     -0.898994     -1.241230
  H      -2.212250     -0.476468      0.190661
  H      -0.469746      2.207694      0.475833
  H       0.940251      1.766783     -0.485832
  H      -0.681242      1.479942     -1.148103
13
Coordinates from ORCA-job orca8 E -157.538053910028
  C      -0.074872      0.002468      0.420499
  C       1.255264     -0.678150      0.263175
  C      -1.231417     -0.850281     -0.130858
  C      -0.076614      1.434437     -0.210603
  H      -0.248192      0.133769      1.508778
  H       2.086159     -0.380401      0.916540
  H       1.299402     -1.713755     -0.099432
  H      -1.196288     -1.883720      0.256550
  H      -1.190075     -0.900649     -1.235047
  H      -2.209312     -0.420443      0.152179
  H      -0.521892      2.183187      0.468211
  H       0.943669      1.776073     -0.452856
  H      -0.657536      1.448939     -1.149745
13
Coordinates from ORCA-job orca8 E -157.539616520817
  C      -0.075127     -0.007137      0.430201
  C       1.243382     -0.692981      0.273443
  C      -1.236348     -0.847687     -0.123773
  C      -0.072165      1.424666     -0.197196
  H      -0.251074      0.130912      1.519489
  H       2.116304     -0.337877      0.835837
  H       1.303148     -1.718015     -0.113636
  H      -1.235724     -1.871878      0.288165
  H      -1.169528     -0.918406     -1.225866
  H      -2.207673     -0.379141      0.119245
  H      -0.575280      2.158583      0.457912
  H       0.951031      1.785642     -0.395254
  H      -0.612650      1.424795     -1.161177
13
Coordinates from ORCA-job orca8 E -157.540822151492
  C      -0.077262     -0.012019      0.437529
  C       1.234622     -0.705372      0.276296
  C      -1.242249     -0.844610     -0.115279
  C      -0.067577      1.418046     -0.185000
  H      -0.255526      0.129147      1.527446
  H       2.135405     -0.300963      0.754197
  H       1.298657     -1.720828     -0.132508
  H      -1.263810     -1.857619      0.323391
  H      -1.155972     -0.944625     -1.213829
  H      -2.210010     -0.353694      0.096410
  H      -0.628649      2.136676      0.439600
  H       0.958755      1.799702     -0.320285
  H      -0.548090      1.407633     -1.180580
13
Coordinates from ORCA-job orca8 E -157.541844705446
  C      -0.079363     -0.013700      0.443170
  C       1.228615     -0.715375      0.274573
  C      -1.248869     -0.841491     -0.105489
  C      -0.062649      1.413491     -0.175706
  H      -0.257459      0.127313      1.533605
  H       2.146846     -0.272752      0.678861
  H       1.290386     -1.721716     -0.154892
  H      -1.284123     -1.843820      0.356996
  H      -1.150851     -0.970969     -1.199932
  H      -2.214962     -0.338956      0.085124
  H      -0.682706      2.115742      0.410484
  H       0.961948      1.819880     -0.235405
  H      -0.468518      1.393827     -1.203996
13
Coordinates from ORCA-job orca8 E -157.542729218380
  C      -0.079826     -0.013965      0.447475
  C       1.224973     -0.723353      0.269648
  C      -1.255419     -0.838051     -0.094737
  C      -0.057993      1.409684     -0.169615
  H      -0.253912      0.125130      1.538754
  H       2.154508     -0.254579      0.613518
  H       1.281203     -1.721679     -0.177981
  H      -1.300087     -1.831666      0.385942
  H      -1.152919     -0.991425     -1.185589
  H      -2.219750     -0.328085      0.084090
  H      -0.738351      2.092889      0.370360
  H       0.956325      1.846100     -0.147616
  H      -0.380457      1.380474     -1.226859
13
Coordinates from ORCA-job orca8 E -157.543507958427
  C      -0.078409     -0.013948      0.450572
  C       1.223208     -0.729556      0.261863
  C      -1.261498     -0.834014     -0.083402
  C      -0.054108      1.405869     -0.166052
  H      -0.244554      0.123101      1.543195
  H       2.161143     -0.245392      0.558377
  H       1.272704     -1.721879     -0.199542
  H      -1.313541     -1.821349      0.409572
  H      -1.160398     -1.003976     -1.171829
  H      -2.222856     -0.317063      0.091028
  H      -0.794688      2.066271      0.320731
  H       0.940270      1.876251     -0.061225
  H      -0.288980      1.367160     -1.245896
13
Coordinates from ORCA-job orca8 E -157.544174707094
  C      -0.075578     -0.014073      0.452356
  C       1.222660     -0.733956      0.250804
  C      -1.267038     -0.829486     -0.071722
  C      -0.051115      1.402148     -0.164386
  H      -0.230023      0.121721      1.546749
  H       2.167865     -0.243781      0.513043
  H       1.265321     -1.723243     -0.218093
  H      -1.324598     -1.813118      0.428011
  H      -1.172320     -1.008596     -1.159177
  H      -2.224028     -0.305168      0.104703
  H      -0.849877      2.035747      0.263142
  H       0.913981      1.908102      0.021574
  H      -0.196954      1.355177     -1.259613
13
Coordinates from ORCA-job orca8 E -157.544682332248
  C      -0.072060     -0.014421      0.452629
  C       1.222418     -0.736623      0.236007
  C      -1.272047     -0.824943     -0.059800
  C      -0.048835      1.399217     -0.164171
  H      -0.211554      0.121379      1.549040
  H       2.174348     -0.248091      0.477014
  H       1.258432     -1.726458     -0.232753
  H      -1.332033     -1.807554      0.441531
  H      -1.188197     -1.006017     -1.147782
  H      -2.223761     -0.293853      0.124740
  H      -0.901609      2.002679      0.198975
  H       0.878965      1.939616      0.099376
  H      -0.105773      1.346541     -1.267415
13
Coordinates from ORCA-job orca8 E -157.544974142630
  C      -0.068615     -0.014783      0.451308
  C       1.221732     -0.738068      0.217635
  C      -1.276703     -0.820879     -0.047747
  C      -0.046778      1.397822     -0.165207
  H      -0.191140      0.122169      1.549698
  H       2.179492     -0.256090      0.449264
  H       1.250776     -1.732003     -0.243147
  H      -1.333833     -1.805293      0.450209
  H      -1.208104     -0.997307     -1.137568
  H      -2.223356     -0.286133      0.151497
  H      -0.947130      1.969470      0.129342
  H       0.837595      1.969544      0.171409
  H      -0.015641      1.343024     -1.269301
13
Coordinates from ORCA-job orca8 E -157.545044395667
  C      -0.066926     -0.014832      0.449171
  C       1.220959     -0.738155      0.204742
  C      -1.279114     -0.819173     -0.041241
  C      -0.045682      1.398708     -0.166947
  H      -0.179109      0.123263      1.548582
  H       2.180913     -0.262581      0.440518
  H       1.245299     -1.737853     -0.243629
  H      -1.328738     -1.807474      0.449680
  H      -1.223265     -0.986714     -1.133229
  H      -2.223750     -0.286833      0.173056
  H      -0.968411      1.953243      0.088478
  H       0.813571      1.985251      0.206806
  H       0.032547      1.344625     -1.268597
13
Coordinates from ORCA-job orca8 E -157.545067370765
  C      -0.066457     -0.014734      0.447301
  C       1.220857     -0.737447      0.199316
  C      -1.279465     -0.818990     -0.040318
  C      -0.045651      1.400150     -0.168345
  H      -0.175675      0.123963      1.546973
  H       2.180167     -0.265492      0.444421
  H       1.243143     -1.742387     -0.237035
  H      -1.322070     -1.810970      0.443748
  H      -1.230624     -0.978223     -1.133924
  H      -2.224318     -0.291301      0.184070
  H      -0.971964      1.951891      0.079504
  H       0.809845      1.988314      0.211068
  H       0.040508      1.346701     -1.269387
13
Coordinates from ORCA-job orca8 E -157.545086877798
  C      -0.065769     -0.014570      0.444330
  C       1.221479     -0.735834      0.193370
  C      -1.279205     -0.818696     -0.041545
  C      -0.046105      1.401843     -0.170082
  H      -0.173425      0.124765      1.544208
  H       2.178340     -0.267223      0.453373
  H       1.241265     -1.749873     -0.221024
  H      -1.311759     -1.816286      0.431611
  H      -1.239114     -0.965033     -1.137366
  H      -2.224952     -0.298807      0.196651
  H      -0.971454      1.954301      0.079258
  H       0.812168      1.987903      0.206074
  H       0.036825      1.348984     -1.271467
13
Coordinates from ORCA-job orca8 E -157.545092064997
  C      -0.065375     -0.014579      0.443393
  C       1.222089     -0.735172      0.192269
  C      -1.278844     -0.818336     -0.043165
  C      -0.046438      1.401857     -0.170062
  H      -0.173723      0.124478      1.543362
  H       2.177962     -0.265448      0.453830
  H       1.241304     -1.753482     -0.211470
  H      -1.309644     -1.817449      0.426935
  H      -1.240200     -0.961131     -1.139516
  H      -2.224832     -0.300253      0.197946
  H      -0.969561      1.955688      0.084477
  H       0.815152      1.986147      0.201364
  H       0.030407      1.349154     -1.271971
13
Coordinates from ORCA-job orca8 E -157.545100055398
  C      -0.064731     -0.014734      0.442276
  C       1.222899     -0.734557      0.190940
  C      -1.278327     -0.817690     -0.045818
  C      -0.046857      1.401639     -0.169239
  H      -0.174314      0.123059      1.542508
  H       2.178062     -0.260831      0.447838
  H       1.241453     -1.759893     -0.194594
  H      -1.308874     -1.818136      0.421544
  H      -1.240170     -0.957332     -1.142590
  H      -2.224298     -0.300451      0.197159
  H      -0.967319      1.956634      0.092415
  H       0.818360      1.984167      0.196722
  H       0.022411      1.349599     -1.271769
13
Coordinates from ORCA-job orca8 E -157.545114945601
  C      -0.063854     -0.015154      0.440589
  C       1.223730     -0.734159      0.188244
  C      -1.277787     -0.816773     -0.049722
  C      -0.047279      1.401606     -0.167274
  H      -0.174791      0.119671      1.541411
  H       2.178729     -0.252417      0.430530
  H       1.241423     -1.771091     -0.164981
  H      -1.309237     -1.818575      0.414782
  H      -1.239623     -0.953145     -1.146884
  H      -2.223406     -0.299603      0.194806
  H      -0.965459      1.956845      0.101796
  H       0.820746      1.982766      0.194474
  H       0.015104      1.351502     -1.270379
13
Coordinates from ORCA-job orca8 E -157.545153829955
  C      -0.062515     -0.016380      0.436943
  C       1.224539     -0.734317      0.181366
  C      -1.277347     -0.815147     -0.057458
  C      -0.047665      1.402136     -0.162355
  H      -0.175230      0.110913      1.539187
  H       2.179796     -0.234676      0.383338
  H       1.242137     -1.793745     -0.097589
  H      -1.311287     -1.819065      0.402485
  H      -1.238819     -0.946376     -1.155169
  H      -2.222004     -0.297283      0.189441
  H      -0.963580      1.956202      0.116413
  H       0.822618      1.981680      0.196940
  H       0.007651      1.357532     -1.266149
13
Coordinates from ORCA-job orca8 E -157.545213403135
  C      -0.061737     -0.018329      0.432435
  C       1.224084     -0.735935      0.171836
  C      -1.277827     -0.813544     -0.066579
  C      -0.047404      1.403392     -0.155229
  H      -0.175607      0.098046      1.536528
  H       2.179204     -0.214808      0.310798
  H       1.245870     -1.817045     -0.006929
  H      -1.315038     -1.819326      0.389246
  H      -1.238411     -0.940306     -1.164676
  H      -2.221254     -0.294292      0.182340
  H      -0.963176      1.954738      0.128686
  H       0.822098      1.981584      0.208316
  H       0.007493      1.367300     -1.259380
13
Coordinates from ORCA-job orca8 E -157.545267754953
  C      -0.062244     -0.019937      0.429305
  C       1.222017     -0.738529      0.164087
  C      -1.279110     -0.812729     -0.073500
  C      -0.046420      1.405418     -0.147899
  H      -0.176381      0.085548      1.534841
  H       2.176364     -0.202118      0.232726
  H       1.251499     -1.831105      0.075379
  H      -1.318677     -1.819215      0.380695
  H      -1.237983     -0.938055     -1.171583
  H      -2.221894     -0.292258      0.175655
  H      -0.965436      1.953280      0.131353
  H       0.818101      1.983011      0.228063
  H       0.018459      1.378165     -1.251731
13
Coordinates from ORCA-job orca8 E -157.545292556120
  C      -0.063696     -0.020032      0.428988
  C       1.219646     -0.740223      0.161899
  C      -1.280119     -0.812941     -0.075926
  C      -0.045311      1.407806     -0.143141
  H      -0.177859      0.079119      1.534909
  H       2.173796     -0.199540      0.178777
  H       1.253426     -1.835732      0.119448
  H      -1.318388     -1.819655      0.377846
  H      -1.237841     -0.938190     -1.173903
  H      -2.223611     -0.293627      0.173242
  H      -0.969292      1.953108      0.123782
  H       0.812492      1.985369      0.247498
  H       0.035052      1.386010     -1.246029
13
Coordinates from ORCA-job orca8 E -157.545299379188
  C      -0.064546     -0.020157      0.428616
  C       1.218401     -0.741154      0.160893
  C      -1.280697     -0.812852     -0.078080
  C      -0.044516      1.408782     -0.140658
  H      -0.179609      0.076078      1.534688
  H       2.171294     -0.198392      0.148190
  H       1.255093     -1.837338      0.150215
  H      -1.315557     -1.821550      0.371584
  H      -1.239852     -0.933579     -1.176595
  H      -2.224922     -0.296753      0.174950
  H      -0.970075      1.953769      0.121027
  H       0.811426      1.985082      0.255720
  H       0.041854      1.389536     -1.243160
13
Coordinates from ORCA-job orca8 E -157.545302347557
  C      -0.065292     -0.019764      0.429392
  C       1.217733     -0.741494      0.163139
  C      -1.280711     -0.812797     -0.079179
  C      -0.043889      1.409160     -0.139541
  H      -0.182312      0.076012      1.535187
  H       2.169985     -0.198616      0.130805
  H       1.254548     -1.837738      0.166399
  H      -1.311129     -1.823977      0.365222
  H      -1.241809     -0.927650     -1.178399
  H      -2.225987     -0.300992      0.178588
  H      -0.970058      1.954807      0.118500
  H       0.811683      1.984349      0.259147
  H       0.045532      1.390175     -1.241870
13
Coordinates from ORCA-job orca8 E -157.545302524286
  C      -0.065505     -0.019974      0.429335
  C       1.217353     -0.742253      0.164064
  C      -1.280790     -0.812278     -0.081414
  C      -0.043333      1.408915     -0.138303
  H      -0.184614      0.074633      1.535120
  H       2.167731     -0.197794      0.111426
  H       1.256672     -1.838163      0.190359
  H      -1.308255     -1.826265      0.356809
  H      -1.244123     -0.920233     -1.181413
  H      -2.226405     -0.303848      0.181731
  H      -0.969222      1.955001      0.119761
  H       0.812755      1.983205      0.260626
  H       0.046030      1.390529     -1.240710
13
Coordinates from ORCA-job orca8 E -157.545303418252
  C      -0.065317     -0.019770      0.430102
  C       1.217715     -0.742226      0.166494
  C      -1.280446     -0.812077     -0.081184
  C      -0.043284      1.408380     -0.138986
  H      -0.185544      0.076009      1.535622
  H       2.168222     -0.197940      0.114590
  H       1.255800     -1.838269      0.186762
  H      -1.307160     -1.827051      0.354784
  H      -1.244671     -0.917516     -1.181476
  H      -2.226086     -0.304681      0.183885
  H      -0.968955      1.954611      0.119756
  H       0.813045      1.983347      0.258517
  H       0.044975      1.388656     -1.241474
