! UKS B3LYP def2-SV(P) def2/J D3BJ Opt
%scf Convergence VeryTight
SmearTemp 2000
maxiter 500
end
*xyz 0 1
C 2.783649 0.014649 -0.085129
C 1.604167 -0.005695 0.853536
C 0.338672 0.504844 0.173708
C -0.422402 -0.639444 -0.38559
C -1.893068 -0.606723 -0.246137
C -2.480776 0.613593 0.385794
H 3.710063 0.295149 0.473302
H 2.65867 0.774875 -0.875646
H 2.928698 -0.971596 -0.5712
H 1.803248 0.530664 1.797922
H 1.440504 -1.074442 1.138117
H 0.677136 1.194201 -0.639808
H -0.182889 1.125845 0.905089
H -0.115762 -0.748581 -1.457186
H -0.054101 -1.57959 0.099377
H -2.300563 -1.48631 0.314288
H -2.353754 -0.675912 -1.264905
H -2.451736 1.504055 -0.289738
H -2.115736 0.830527 1.401915
H -3.574019 0.399893 0.515333
*
