20
Coordinates from ORCA-job orca3 E -236.688601199304
  C      -2.810096      0.385170      0.372528
  C      -1.637353     -0.544657      0.522519
  C      -0.665479     -0.479870     -0.618442
  C       0.728216     -0.729398     -0.053307
  C       1.420357      0.601068     -0.001583
  C       2.900818      0.505358     -0.287842
  H      -2.572349      1.325474      0.889253
  H      -3.091396      0.546127     -0.694336
  H      -3.699454     -0.085356      0.863802
  H      -1.105039     -0.298950      1.476130
  H      -2.006369     -1.590515      0.676275
  H      -0.689630      0.466018     -1.180649
  H      -0.896641     -1.326750     -1.305094
  H       1.284002     -1.489222     -0.643449
  H       0.668043     -1.143945      0.984784
  H       0.981038      1.325701     -0.713336
  H       1.327610      1.011869      1.033565
  H       3.477729      0.287944      0.646375
  H       3.147687     -0.264779     -1.035567
  H       3.238305      1.498711     -0.669221
20
Coordinates from ORCA-job orca3 E -236.704118561817
  C      -2.960193      0.348043      0.361914
  C      -1.730459     -0.548289      0.566492
  C      -0.704539     -0.495903     -0.575458
  C       0.759449     -0.693585     -0.074343
  C       1.541376      0.631201      0.011589
  C       3.040884      0.506317     -0.307514
  H      -2.785499      1.334366      0.823076
  H      -3.219599      0.459495     -0.707411
  H      -3.847808     -0.103956      0.848494
  H      -1.237569     -0.257878      1.515683
  H      -2.058718     -1.593349      0.738138
  H      -0.781029      0.442430     -1.143744
  H      -0.929625     -1.335483     -1.263461
  H       1.293517     -1.430508     -0.703779
  H       0.736029     -1.141644      0.936410
  H       1.110638      1.395131     -0.656205
  H       1.471311      1.015289      1.049355
  H       3.626389      0.218054      0.587992
  H       3.244559     -0.236381     -1.098484
  H       3.430887      1.486649     -0.646339
20
Coordinates from ORCA-job orca3 E -236.707692948606
  C      -2.987324      0.329549      0.354542
  C      -1.732632     -0.534562      0.595491
  C      -0.708874     -0.504417     -0.559030
  C       0.764936     -0.689470     -0.098377
  C       1.559582      0.632232      0.020915
  C       3.064643      0.505669     -0.296039
  H      -2.832500      1.358167      0.724222
  H      -3.256008      0.369500     -0.716442
  H      -3.863890     -0.085283      0.883647
  H      -1.241533     -0.198207      1.528101
  H      -2.034496     -1.578331      0.797456
  H      -0.803017      0.440255     -1.123416
  H      -0.952267     -1.326315     -1.256858
  H       1.290962     -1.389623     -0.772011
  H       0.760779     -1.183450      0.890610
  H       1.121449      1.405135     -0.635472
  H       1.470112      1.009216      1.056405
  H       3.641231      0.156230      0.579700
  H       3.254676     -0.201840     -1.124068
  H       3.484169      1.485543     -0.586970
20
Coordinates from ORCA-job orca3 E -236.710112888943
  C      -2.992811      0.311471      0.349971
  C      -1.719186     -0.514082      0.619014
  C      -0.711669     -0.507134     -0.552105
  C       0.765506     -0.686081     -0.126157
  C       1.562798      0.631231      0.027991
  C       3.067511      0.500895     -0.276557
  H      -2.852659      1.372893      0.623661
  H      -3.277690      0.275218     -0.717740
  H      -3.854668     -0.065656      0.927781
  H      -1.222157     -0.129732      1.529437
  H      -1.995784     -1.556959      0.857631
  H      -0.821394      0.440306     -1.113916
  H      -0.979487     -1.315330     -1.256387
  H       1.285762     -1.349634     -0.840323
  H       0.781206     -1.224688      0.840318
  H       1.123343      1.410812     -0.621457
  H       1.450265      1.002767      1.063381
  H       3.628507      0.094153      0.584490
  H       3.248693     -0.171496     -1.135983
  H       3.513912      1.481046     -0.520646
20
Coordinates from ORCA-job orca3 E -236.712135048899
  C      -2.990128      0.295483      0.350054
  C      -1.697933     -0.487550      0.635505
  C      -0.714835     -0.505214     -0.554650
  C       0.763927     -0.686674     -0.158400
  C       1.556976      0.626524      0.030098
  C       3.061802      0.494528     -0.250171
  H      -2.861373      1.379277      0.528378
  H      -3.302127      0.178312     -0.704941
  H      -3.829860     -0.043501      0.981611
  H      -1.190481     -0.055100      1.518439
  H      -1.947643     -1.527095      0.916756
  H      -0.833500      0.441897     -1.117839
  H      -1.009629     -1.305456     -1.257795
  H       1.278758     -1.316085     -0.907293
  H       0.798876     -1.264884      0.785434
  H       1.123464      1.411641     -0.617817
  H       1.417888      0.991772      1.065209
  H       3.600345      0.035981      0.599496
  H       3.246469     -0.140405     -1.137099
  H       3.529002      1.476549     -0.442568
20
Coordinates from ORCA-job orca3 E -236.714017489728
  C      -2.985799      0.281153      0.355019
  C      -1.673358     -0.457382      0.645703
  C      -0.719499     -0.500129     -0.564511
  C       0.761224     -0.689411     -0.194952
  C       1.546913      0.619843      0.026808
  C       3.053959      0.486968     -0.218525
  H      -2.868494      1.377935      0.441382
  H      -3.332451      0.081208     -0.676964
  H      -3.796451     -0.019340      1.042250
  H      -1.153907      0.022211      1.497326
  H      -1.893094     -1.491062      0.972304
  H      -0.841932      0.443991     -1.132955
  H      -1.041260     -1.298222     -1.259113
  H       1.270341     -1.287666     -0.973423
  H       0.813780     -1.301868      0.726980
  H       1.126821      1.409782     -0.624599
  H       1.378341      0.978375      1.060587
  H       3.564319     -0.018334      0.622401
  H       3.253985     -0.109235     -1.128758
  H       3.536558      1.471180     -0.354554
20
Coordinates from ORCA-job orca3 E -236.715810386412
  C      -2.983310      0.267548      0.364369
  C      -1.648355     -0.425486      0.650614
  C      -0.725931     -0.492308     -0.579420
  C       0.758027     -0.691985     -0.235058
  C       1.535979      0.612971      0.018306
  C       3.047094      0.477752     -0.183137
  H      -2.879890      1.369208      0.364131
  H      -3.368162     -0.014477     -0.634527
  H      -3.758770      0.005297      1.106566
  H      -1.118393      0.099570      1.468754
  H      -1.834249     -1.451142      1.022172
  H      -0.849023      0.446394     -1.156603
  H      -1.072692     -1.293893     -1.258701
  H       1.260536     -1.261961     -1.039160
  H       0.826426     -1.333713      0.666168
  H       1.136928      1.407264     -0.641080
  H       1.336469      0.965346      1.049099
  H       3.524247     -0.069743      0.651191
  H       3.272496     -0.079823     -1.111774
  H       3.540572      1.463178     -0.259504
20
Coordinates from ORCA-job orca3 E -236.717482652071
  C      -2.985381      0.252998      0.376386
  C      -1.625735     -0.393146      0.652316
  C      -0.733718     -0.482109     -0.596092
  C       0.754911     -0.691812     -0.277201
  C       1.527811      0.607520      0.006191
  C       3.043678      0.466155     -0.146347
  H      -2.901026      1.353031      0.295331
  H      -3.407033     -0.108833     -0.580928
  H      -3.721581      0.028838      1.169927
  H      -1.090398      0.176342      1.436654
  H      -1.773606     -1.408962      1.066354
  H      -0.857190      0.449176     -1.184675
  H      -1.101674     -1.292028     -1.254598
  H       1.248828     -1.235025     -1.105071
  H       0.837880     -1.359614      0.603873
  H       1.156031      1.406370     -0.663532
  H       1.298400      0.954706      1.032359
  H       3.484131     -0.120239      0.681866
  H       3.300354     -0.053704     -1.088629
  H       3.545316      1.450333     -0.161777
20
Coordinates from ORCA-job orca3 E -236.718972282025
  C      -2.991156      0.235960      0.388754
  C      -1.606386     -0.361034      0.653570
  C      -0.741538     -0.470397     -0.610988
  C       0.752162     -0.687220     -0.319106
  C       1.523901      0.604462     -0.006606
  C       3.043293      0.451743     -0.110548
  H      -2.932623      1.328899      0.230329
  H      -3.443039     -0.202845     -0.521084
  H      -3.687800      0.051861      1.227234
  H      -1.072634      0.252535      1.405072
  H      -1.713420     -1.365229      1.106690
  H      -0.867853      0.452515     -1.211868
  H      -1.126449     -1.291034     -1.246283
  H       1.235026     -1.202486     -1.171104
  H       0.849560     -1.380684      0.540551
  H       1.182050      1.408305     -0.686368
  H       1.266885      0.947797      1.013805
  H       3.445865     -0.171936      0.709630
  H       3.331165     -0.032064     -1.062851
  H       3.552991      1.430849     -0.066425
20
Coordinates from ORCA-job orca3 E -236.720240290611
  C      -2.997415      0.216281      0.400337
  C      -1.589165     -0.329126      0.655539
  C      -0.748275     -0.457704     -0.622703
  C       0.749828     -0.678793     -0.358868
  C       1.522876      0.603499     -0.018060
  C       3.043318      0.434866     -0.076751
  H      -2.970365      1.296540      0.166094
  H      -3.470891     -0.296318     -0.458206
  H      -3.657125      0.075935      1.276283
  H      -1.062835      0.327499      1.375280
  H      -1.654853     -1.319979      1.144388
  H      -0.880369      0.456664     -1.235382
  H      -1.147287     -1.288959     -1.235117
  H       1.219806     -1.163334     -1.235832
  H       0.862516     -1.398960      0.476799
  H       1.210801      1.412171     -0.706670
  H       1.239947      0.944899      0.995719
  H       3.408473     -0.225040      0.732389
  H       3.359066     -0.015217     -1.036615
  H       3.561948      1.405071      0.023780
20
Coordinates from ORCA-job orca3 E -236.721276877895
  C      -3.003177      0.193908      0.411292
  C      -1.573433     -0.296907      0.657786
  C      -0.753910     -0.443457     -0.631821
  C       0.747709     -0.667398     -0.395755
  C       1.523912      0.604125     -0.027748
  C       3.042901      0.415760     -0.044997
  H      -3.012083      1.255425      0.102169
  H      -3.490254     -0.389808     -0.392417
  H      -3.629123      0.101033      1.317663
  H      -1.058959      0.401174      1.346184
  H      -1.597909     -1.272716      1.179735
  H      -0.893669      0.462380     -1.255503
  H      -1.165391     -1.284195     -1.222803
  H       1.203606     -1.119035     -1.297537
  H       0.876250     -1.414884      0.413328
  H       1.241195      1.417240     -0.724116
  H       1.216655      0.945847      0.978599
  H       3.371342     -0.279292      0.750238
  H       3.383141     -0.002989     -1.010617
  H       3.571196      1.373786      0.108726
20
Coordinates from ORCA-job orca3 E -236.722080130867
  C      -3.008608      0.168749      0.422418
  C      -1.558812     -0.263453      0.659285
  C      -0.758994     -0.427140     -0.639960
  C       0.745370     -0.653747     -0.430428
  C       1.526591      0.605684     -0.035848
  C       3.042142      0.394511     -0.014719
  H      -3.057671      1.204689      0.038795
  H      -3.502416     -0.484402     -0.321648
  H      -3.603333      0.126722      1.353026
  H      -1.059658      0.475185      1.315394
  H      -1.541086     -1.221866      1.213118
  H      -0.907186      0.470034     -1.274207
  H      -1.181879     -1.276225     -1.210895
  H       1.186613     -1.071580     -1.355694
  H       0.889144     -1.428320      0.350064
  H       1.273515      1.423392     -0.738540
  H       1.196909      0.949304      0.962614
  H       3.334270     -0.334602      0.764048
  H       3.404967      0.005476     -0.984550
  H       3.580122      1.337585      0.190131
20
Coordinates from ORCA-job orca3 E -236.722653561195
  C      -3.013505      0.141226      0.434410
  C      -1.544854     -0.227699      0.658978
  C      -0.763993     -0.408913     -0.648752
  C       0.742478     -0.638791     -0.464093
  C       1.530147      0.607042     -0.042053
  C       3.040871      0.371430      0.014618
  H      -3.106821      1.143321     -0.024254
  H      -3.507732     -0.580559     -0.243076
  H      -3.578992      0.153777      1.383619
  H      -1.064021      0.551746      1.280129
  H      -1.482489     -1.165153      1.244966
  H      -0.920562      0.479306     -1.293530
  H      -1.197508     -1.265526     -1.200508
  H       1.169368     -1.022580     -1.410767
  H       0.899664     -1.439884      0.286278
  H       1.307006      1.430577     -0.748345
  H       1.180256      0.952080      0.948910
  H       3.297657     -0.390684      0.774171
  H       3.425747      0.011937     -0.958127
  H       3.587281      1.297345      0.269830
20
Coordinates from ORCA-job orca3 E -236.723003166838
  C      -3.017532      0.111867      0.447262
  C      -1.531508     -0.188792      0.656187
  C      -0.769087     -0.389077     -0.658987
  C       0.738906     -0.623344     -0.497195
  C       1.533943      0.606953     -0.045167
  C       3.039067      0.346897      0.042715
  H      -3.158805      1.069785     -0.087809
  H      -3.505286     -0.678042     -0.154634
  H      -3.556125      0.183727      1.409148
  H      -1.072377      0.632341      1.238393
  H      -1.421286     -1.100425      1.275416
  H      -0.933269      0.489900     -1.314447
  H      -1.212670     -1.252571     -1.192064
  H       1.152635     -0.972867     -1.462912
  H       0.906541     -1.450420      0.221826
  H       1.339915      1.438811     -0.750506
  H       1.166651      0.950312      0.939911
  H       3.263258     -0.447348      0.779512
  H       3.445370      0.018388     -0.932266
  H       3.591657      1.253904      0.348019
20
Coordinates from ORCA-job orca3 E -236.723147505995
  C      -3.020844      0.080683      0.459991
  C      -1.519450     -0.145541      0.650571
  C      -0.774148     -0.367465     -0.670497
  C       0.734688     -0.607903     -0.528608
  C       1.537884      0.604201     -0.042896
  C       3.037451      0.321074      0.067866
  H      -3.213336      0.982022     -0.152210
  H      -3.493112     -0.776066     -0.056660
  H      -3.536664      0.216547      1.427346
  H      -1.087058      0.718747      1.188799
  H      -1.357710     -1.024789      1.304791
  H      -0.944297      0.501922     -1.337124
  H      -1.227355     -1.237275     -1.185172
  H       1.137365     -0.923001     -1.510770
  H       0.908415     -1.460482      0.158227
  H       1.369654      1.448388     -0.740319
  H       1.157522      0.939685      0.939715
  H       3.234577     -0.504900      0.777069
  H       3.462343      0.026546     -0.910005
  H       3.594075      1.207604      0.422291
20
Coordinates from ORCA-job orca3 E -236.723170788764
  C      -3.022591      0.072245      0.461352
  C      -1.517340     -0.131259      0.647845
  C      -0.775262     -0.361294     -0.673742
  C       0.733351     -0.605299     -0.534210
  C       1.538987      0.600639     -0.036686
  C       3.038442      0.314765      0.070578
  H      -3.229642      0.955165     -0.172453
  H      -3.487423     -0.803023     -0.030331
  H      -3.534477      0.225947      1.428235
  H      -1.093929      0.746504      1.171224
  H      -1.340365     -0.998542      1.314059
  H      -0.944995      0.505533     -1.343758
  H      -1.231184     -1.232197     -1.184137
  H       1.135275     -0.912432     -1.519183
  H       0.905068     -1.464469      0.144848
  H       1.372164      1.452211     -0.725415
  H       1.159662      0.926877      0.949346
  H       3.235205     -0.520135      0.769277
  H       3.463499      0.032396     -0.910773
  H       3.595552      1.196365      0.436330
20
Coordinates from ORCA-job orca3 E -236.723204471052
  C      -3.026244      0.059266      0.459932
  C      -1.515375     -0.104295      0.641637
  C      -0.776258     -0.351553     -0.678743
  C       0.731161     -0.603861     -0.538206
  C       1.540251      0.590397     -0.017819
  C       3.041577      0.306178      0.068291
  H      -3.257105      0.909306     -0.209380
  H      -3.475200     -0.846224      0.010095
  H      -3.534708      0.241859      1.423714
  H      -1.108725      0.797634      1.136456
  H      -1.312907     -0.947562      1.331116
  H      -0.942119      0.510724     -1.355480
  H      -1.236877     -1.223769     -1.182603
  H       1.135434     -0.899860     -1.525551
  H       0.894897     -1.473260      0.129758
  H       1.366290      1.459836     -0.682035
  H       1.169786      0.889825      0.979874
  H       3.248365     -0.544428      0.744666
  H       3.458665      0.049089     -0.923346
  H       3.599090      1.180696      0.450030
20
Coordinates from ORCA-job orca3 E -236.723213944802
  C      -3.027481      0.057793      0.456311
  C      -1.515777     -0.095964      0.639121
  C      -0.775483     -0.350563     -0.679249
  C       0.730933     -0.606145     -0.534604
  C       1.539767      0.584826     -0.006700
  C       3.042925      0.306180      0.062207
  H      -3.263024      0.900354     -0.220756
  H      -3.471401     -0.854339      0.014965
  H      -3.536972      0.246186      1.418429
  H      -1.113550      0.812820      1.124881
  H      -1.308285     -0.931409      1.336626
  H      -0.937941      0.510048     -1.358918
  H      -1.237359     -1.223099     -1.181421
  H       1.138498     -0.900786     -1.520975
  H       0.889995     -1.477386      0.132166
  H       1.356165      1.462494     -0.657395
  H       1.177091      0.868969      0.998310
  H       3.260224     -0.549306      0.729068
  H       3.451335      0.059462     -0.935669
  H       3.600339      1.179859      0.446009
20
Coordinates from ORCA-job orca3 E -236.723216926779
  C      -3.027754      0.060059      0.452805
  C      -1.516664     -0.094790      0.638411
  C      -0.774331     -0.352775     -0.678058
  C       0.731452     -0.608812     -0.529785
  C       1.538925      0.582253     -0.000467
  C       3.043322      0.308567      0.056635
  H      -3.261548      0.904452     -0.222661
  H      -3.471299     -0.850784      0.008393
  H      -3.538955      0.246771      1.414302
  H      -1.114255      0.814596      1.122831
  H      -1.311356     -0.929088      1.337977
  H      -0.934651      0.506774     -1.359609
  H      -1.236109     -1.225884     -1.179371
  H       1.141376     -0.904213     -1.514961
  H       0.888812     -1.479474      0.138188
  H       1.347296      1.463313     -0.644264
  H       1.181811      0.858310      1.008826
  H       3.268137     -0.548534      0.718960
  H       3.445064      0.066502     -0.945090
  H       3.600725      1.182755      0.439343
20
Coordinates from ORCA-job orca3 E -236.723217574409
  C      -3.027724      0.061803      0.451104
  C      -1.517103     -0.094837      0.638275
  C      -0.773733     -0.354765     -0.677107
  C       0.731896     -0.610103     -0.527456
  C       1.538426      0.581493      0.002071
  C       3.043334      0.310026      0.054156
  H      -3.259943      0.907997     -0.222718
  H      -3.471792     -0.847541      0.004149
  H      -3.539668      0.247337      1.412415
  H      -1.114137      0.814306      1.122666
  H      -1.313822     -0.929166      1.338439
  H      -0.933524      0.503625     -1.360262
  H      -1.235163     -1.228844     -1.177083
  H       1.142543     -0.905137     -1.512463
  H       0.889579     -1.480612      0.140632
  H       1.343037      1.463575     -0.639196
  H       1.183667      0.854457      1.013050
  H       3.271014     -0.548491      0.713679
  H       3.442306      0.070944     -0.949387
  H       3.600805      1.183930      0.437441
