! UKS B3LYP def2-SV(P) def2/J D3BJ Opt
%scf Convergence VeryTight
SmearTemp 2000
maxiter 500
end
*xyz 0 1
C -2.810096 0.38517 0.372528
C -1.637353 -0.544657 0.522519
C -0.665479 -0.47987 -0.618442
C 0.728216 -0.729398 -0.053307
C 1.420357 0.601068 -0.001583
C 2.900818 0.505358 -0.287842
H -2.572349 1.325474 0.889253
H -3.091396 0.546127 -0.694336
H -3.699454 -0.085356 0.863802
H -1.105039 -0.29895 1.47613
H -2.006369 -1.590515 0.676275
H -0.68963 0.466018 -1.180649
H -0.896641 -1.32675 -1.305094
H 1.284002 -1.489222 -0.643449
H 0.668043 -1.143945 0.984784
H 0.981038 1.325701 -0.713336
H 1.32761 1.011869 1.033565
H 3.477729 0.287944 0.646375
H 3.147687 -0.264779 -1.035567
H 3.238305 1.498711 -0.669221
*
