32
Coordinates from ORCA-job orca2 E -393.703486380350
  C       4.979583      0.201329     -0.812473
  C       4.161316     -0.219287      0.403270
  C       2.727402      0.178890      0.186034
  C       1.814315     -1.026488      0.000172
  C       0.536519     -0.636290     -0.683362
  C      -0.666502     -0.668745      0.239154
  C      -1.487598      0.549070     -0.076646
  C      -2.800774      0.607633      0.640058
  C      -3.932191      0.010469     -0.190565
  C      -5.237969      0.439882      0.464872
  H       4.633952     -0.313989     -1.724247
  H       4.932461      1.313903     -0.900199
  H       6.054340     -0.027675     -0.608181
  H       4.552040      0.407374      1.244645
  H       4.292633     -1.303297      0.597228
  H       2.622712      0.813651     -0.729693
  H       2.332645      0.812021      1.020066
  H       2.354937     -1.712016     -0.700701
  H       1.641831     -1.549480      0.974761
  H       0.697827      0.383698     -1.115930
  H       0.285110     -1.307013     -1.542413
  H      -0.369781     -0.598979      1.312239
  H      -1.275217     -1.597476      0.102594
  H      -0.877017      1.434074      0.228134
  H      -1.676168      0.529664     -1.173147
  H      -3.064914      1.691511      0.740010
  H      -2.787348      0.187966      1.657963
  H      -3.898522      0.506550     -1.171810
  H      -3.848289     -1.092804     -0.239204
  H      -5.580208     -0.299417      1.207745
  H      -6.031489      0.615927     -0.301615
  H      -5.085636      1.436507      0.951240
32
Coordinates from ORCA-job orca2 E -393.723003816476
  C       5.189338      0.099364     -0.757609
  C       4.275638     -0.258366      0.427587
  C       2.831483      0.185941      0.164145
  C       1.859453     -0.987926     -0.055526
  C       0.551196     -0.573643     -0.744962
  C      -0.682345     -0.551330      0.178838
  C      -1.570278      0.659141     -0.129918
  C      -2.896435      0.685545      0.626882
  C      -4.059410      0.013692     -0.135427
  C      -5.412985      0.321985      0.539931
  H       4.862474     -0.402279     -1.684643
  H       5.209832      1.200111     -0.880113
  H       6.235435     -0.189128     -0.522284
  H       4.661617      0.328233      1.286416
  H       4.344021     -1.341041      0.634438
  H       2.780726      0.824962     -0.740246
  H       2.444266      0.824866      0.987300
  H       2.387206     -1.695955     -0.730983
  H       1.666092     -1.499736      0.907533
  H       0.709500      0.425799     -1.193627
  H       0.306986     -1.251866     -1.588556
  H      -0.375132     -0.471255      1.241411
  H      -1.276013     -1.481439      0.066836
  H      -0.985267      1.562433      0.137202
  H      -1.781532      0.639544     -1.216807
  H      -3.194820      1.749627      0.736539
  H      -2.816438      0.274249      1.648991
  H      -4.085546      0.474654     -1.136632
  H      -3.898486     -1.078524     -0.177900
  H      -5.675756     -0.432813      1.301017
  H      -6.231654      0.390693     -0.205053
  H      -5.373165      1.321626      1.015220
32
Coordinates from ORCA-job orca2 E -393.729763884387
  C       5.268695      0.012035     -0.668227
  C       4.275572     -0.284821      0.472043
  C       2.843162      0.192179      0.142619
  C       1.854754     -0.959435     -0.135531
  C       0.543758     -0.508453     -0.820486
  C      -0.689617     -0.442633      0.110730
  C      -1.607448      0.756181     -0.202664
  C      -2.922709      0.769745      0.593985
  C      -4.077054      0.003312     -0.087648
  C      -5.427915      0.203752      0.634362
  H       4.964586     -0.479356     -1.609580
  H       5.344183      1.102846     -0.826704
  H       6.284890     -0.332408     -0.399900
  H       4.638074      0.259678      1.361645
  H       4.283599     -1.366897      0.690864
  H       2.857495      0.844744     -0.750927
  H       2.442258      0.825352      0.957738
  H       2.376312     -1.677441     -0.797158
  H       1.633870     -1.484842      0.810818
  H       0.707482      0.487852     -1.270746
  H       0.303022     -1.182190     -1.661971
  H      -0.362478     -0.353977      1.164256
  H      -1.276092     -1.376262      0.029872
  H      -1.037421      1.677982      0.012430
  H      -1.844971      0.730354     -1.283022
  H      -3.258121      1.819303      0.699424
  H      -2.772167      0.385289      1.621033
  H      -4.170655      0.403717     -1.112930
  H      -3.834745     -1.074136     -0.122051
  H      -5.584415     -0.537523      1.437285
  H      -6.276978      0.138776     -0.069478
  H      -5.478927      1.214438      1.079919
32
Coordinates from ORCA-job orca2 E -393.733243784074
  C       5.286731     -0.062744     -0.569676
  C       4.231910     -0.307223      0.520716
  C       2.822631      0.198695      0.124294
  C       1.835608     -0.932118     -0.221200
  C       0.532244     -0.445125     -0.899991
  C      -0.690276     -0.349719      0.042003
  C      -1.626287      0.831908     -0.278188
  C      -2.922126      0.841375      0.554719
  C      -4.054947     -0.011857     -0.044798
  C      -5.380934      0.101953      0.731544
  H       5.004124     -0.545860     -1.523227
  H       5.410541      1.019595     -0.754532
  H       6.274586     -0.456038     -0.268486
  H       4.564882      0.202658      1.441559
  H       4.187235     -1.388220      0.746552
  H       2.900254      0.868598     -0.753372
  H       2.396991      0.821302      0.933897
  H       2.357035     -1.650660     -0.880848
  H       1.587921     -1.483463      0.704938
  H       0.706910      0.551703     -1.346587
  H       0.288154     -1.110846     -1.746499
  H      -0.343839     -0.248303      1.088225
  H      -1.270464     -1.290052     -0.005140
  H      -1.067801      1.771546     -0.113820
  H      -1.888763      0.794213     -1.353026
  H      -3.290923      1.879958      0.647662
  H      -2.707918      0.495951      1.585560
  H      -4.213898      0.321104     -1.087645
  H      -3.739127     -1.071214     -0.072965
  H      -5.428516     -0.605239      1.578706
  H      -6.250388     -0.095743      0.079963
  H      -5.511547      1.121029      1.139660
32
Coordinates from ORCA-job orca2 E -393.735380749947
  C       5.274315     -0.119132     -0.477998
  C       4.174263     -0.328140      0.567349
  C       2.791533      0.201956      0.114750
  C       1.817057     -0.908933     -0.305859
  C       0.523716     -0.388573     -0.973707
  C      -0.684051     -0.281277     -0.018958
  C      -1.636089      0.879184     -0.346407
  C      -2.911876      0.892333      0.515133
  C      -4.021235     -0.031876     -0.006502
  C      -5.314565      0.030230      0.820626
  H       5.010895     -0.595312     -1.441425
  H       5.435750      0.956614     -0.674388
  H       6.237914     -0.547578     -0.147721
  H       4.477692      0.156614      1.512412
  H       4.091136     -1.408043      0.792945
  H       2.922092      0.895161     -0.738563
  H       2.333636      0.805246      0.921589
  H       2.344959     -1.609605     -0.979899
  H       1.549888     -1.500470      0.591079
  H       0.712215      0.611574     -1.408948
  H       0.268053     -1.038793     -1.829571
  H      -0.322019     -0.161995      1.020619
  H      -1.253340     -1.230278     -0.034621
  H      -1.088313      1.832724     -0.225552
  H      -1.919613      0.823106     -1.415968
  H      -3.309932      1.922174      0.582354
  H      -2.650766      0.597560      1.551271
  H      -4.235617      0.236131     -1.058828
  H      -3.649090     -1.073917     -0.022617
  H      -5.266341     -0.621381      1.711998
  H      -6.191184     -0.286196      0.227762
  H      -5.511081      1.058056      1.177645
32
Coordinates from ORCA-job orca2 E -393.737123731827
  C       5.252386     -0.164005     -0.397546
  C       4.117937     -0.352095      0.610289
  C       2.761080      0.201631      0.115420
  C       1.803777     -0.887025     -0.384750
  C       0.520610     -0.335575     -1.040345
  C      -0.673752     -0.227559     -0.073912
  C      -1.644980      0.909207     -0.409398
  C      -2.902664      0.927951      0.475210
  C      -3.988776     -0.056815      0.029374
  C      -5.248897     -0.019806      0.902271
  H       5.004933     -0.631168     -1.370072
  H       5.443268      0.907508     -0.592063
  H       6.195747     -0.618591     -0.044338
  H       4.396217      0.112328      1.573767
  H       4.006553     -1.431845      0.827865
  H       2.934755      0.923872     -0.705824
  H       2.269324      0.778063      0.922217
  H       2.343667     -1.555951     -1.081879
  H       1.521649     -1.526117      0.475208
  H       0.723543      0.669176     -1.459545
  H       0.250183     -0.966132     -1.907025
  H      -0.299975     -0.086950      0.959383
  H      -1.226863     -1.186765     -0.062170
  H      -1.109810      1.874581     -0.325883
  H      -1.946399      0.828972     -1.473214
  H      -3.329664      1.948183      0.507319
  H      -2.607006      0.691380      1.517253
  H      -4.250500      0.148905     -1.026614
  H      -3.572343     -1.082763      0.033676
  H      -5.118490     -0.600613      1.833727
  H      -6.123130     -0.439879      0.373187
  H      -5.502381      1.015059      1.198410
32
Coordinates from ORCA-job orca2 E -393.738725053436
  C       5.228745     -0.203786     -0.333484
  C       4.069725     -0.377951      0.647456
  C       2.735496      0.198857      0.124365
  C       1.796711     -0.864962     -0.453538
  C       0.522126     -0.285021     -1.095006
  C      -0.661126     -0.182088     -0.118351
  C      -1.654864      0.929064     -0.463527
  C      -2.898483      0.952404      0.437697
  C      -3.960720     -0.084186      0.061282
  C      -5.192149     -0.055971      0.971461
  H       4.991631     -0.662016     -1.312873
  H       5.442558      0.864881     -0.520150
  H       6.156110     -0.678209      0.035834
  H       4.330899      0.071532      1.623122
  H       3.936975     -1.457670      0.854854
  H       2.942617      0.952251     -0.660499
  H       2.212697      0.744583      0.933023
  H       2.351192     -1.492623     -1.177542
  H       1.504472     -1.553566      0.364211
  H       0.738823      0.724323     -1.496642
  H       0.235460     -0.894708     -1.971822
  H      -0.279342     -0.017097      0.908787
  H      -1.193658     -1.152469     -0.082545
  H      -1.134586      1.905028     -0.411154
  H      -1.969798      0.821491     -1.521432
  H      -3.354892      1.960642      0.429628
  H      -2.579769      0.776279      1.485172
  H      -4.260547      0.065104     -0.994284
  H      -3.508452     -1.094751      0.090628
  H      -4.994777     -0.559254      1.935959
  H      -6.055673     -0.564414      0.506169
  H      -5.497399      0.981466      1.203199
32
Coordinates from ORCA-job orca2 E -393.740242382995
  C       5.209082     -0.244988     -0.292786
  C       4.036422     -0.404896      0.675919
  C       2.719562      0.195191      0.140343
  C       1.795233     -0.841313     -0.506570
  C       0.526666     -0.234835     -1.130821
  C      -0.648275     -0.138978     -0.145872
  C      -1.666949      0.944681     -0.504254
  C      -2.902684      0.969431      0.405474
  C      -3.938239     -0.113251      0.087497
  C      -5.151202     -0.085734      1.021150
  H       4.973447     -0.696699     -1.275240
  H       5.441648      0.821022     -0.471628
  H       6.124789     -0.734945      0.085244
  H       4.293551      0.037389      1.656021
  H       3.885796     -1.483537      0.876990
  H       2.949835      0.978299     -0.608181
  H       2.173952      0.710340      0.953798
  H       2.362438     -1.422011     -1.259291
  H       1.498528     -1.577224      0.267102
  H       0.756489      0.778132     -1.515812
  H       0.222309     -0.824464     -2.015558
  H      -0.262957      0.053738      0.875085
  H      -1.156853     -1.120933     -0.088668
  H      -1.163828      1.930542     -0.476443
  H      -1.989197      0.807884     -1.556700
  H      -3.389867      1.962070      0.353199
  H      -2.573414      0.853427      1.458243
  H      -4.263830     -0.012783     -0.966301
  H      -3.455497     -1.108256      0.145953
  H      -4.904585     -0.507861      2.013175
  H      -5.995150     -0.670639      0.613267
  H      -5.507223      0.948361      1.185664
32
Coordinates from ORCA-job orca2 E -393.741654114904
  C       5.192761     -0.290917     -0.267066
  C       4.013282     -0.432950      0.698897
  C       2.709698      0.191183      0.161151
  C       1.796373     -0.815439     -0.548498
  C       0.532643     -0.183347     -1.155005
  C      -0.636970     -0.092964     -0.164153
  C      -1.681958      0.961252     -0.539152
  C      -2.912839      0.983836      0.376442
  C      -3.917241     -0.143210      0.111665
  C      -5.119514     -0.115485      1.059226
  H       4.953691     -0.738083     -1.250329
  H       5.442950      0.771832     -0.440208
  H       6.098818     -0.794697      0.115676
  H       4.276268      0.008086      1.677795
  H       3.844411     -1.508963      0.898601
  H       2.956878      1.002932     -0.550669
  H       2.148071      0.675142      0.982523
  H       2.374575     -1.346820     -1.328357
  H       1.496809     -1.594428      0.180330
  H       0.774840      0.832166     -1.525087
  H       0.212170     -0.755282     -2.045619
  H      -0.251148      0.130181      0.850077
  H      -1.120201     -1.085900     -0.086377
  H      -1.198088      1.956805     -0.533749
  H      -2.008276      0.793438     -1.585711
  H      -3.432825      1.956277      0.279061
  H      -2.578792      0.927204      1.432565
  H      -4.260270     -0.087691     -0.939929
  H      -3.404935     -1.120587      0.201965
  H      -4.837081     -0.453507      2.073669
  H      -5.935555     -0.770491      0.704482
  H      -5.528546      0.907592      1.155781
32
Coordinates from ORCA-job orca2 E -393.742931147529
  C       5.173065     -0.338338     -0.243220
  C       3.989106     -0.461044      0.721567
  C       2.697325      0.186591      0.184671
  C       1.798650     -0.787140     -0.589126
  C       0.539716     -0.131320     -1.179361
  C      -0.626401     -0.046238     -0.184288
  C      -1.697376      0.976806     -0.576401
  C      -2.922506      0.996459      0.347406
  C      -3.892944     -0.172313      0.137990
  C      -5.085979     -0.143940      1.097237
  H       4.930821     -0.780987     -1.227440
  H       5.440764      0.720667     -0.412261
  H       6.069644     -0.855943      0.143074
  H       4.260156     -0.020311      1.698224
  H       3.800780     -1.533534      0.921669
  H       2.959619      1.028714     -0.485477
  H       2.119945      0.634251      1.015277
  H       2.390034     -1.267197     -1.391623
  H       1.494943     -1.606708      0.091796
  H       0.792099      0.886951     -1.534448
  H       0.208135     -0.687175     -2.076082
  H      -0.241380      0.207437      0.822777
  H      -1.084236     -1.049050     -0.086053
  H      -1.234023      1.981689     -0.595229
  H      -2.027725      0.777481     -1.615929
  H      -3.475360      1.945296      0.207918
  H      -2.582686      0.998397      1.403017
  H      -4.250580     -0.163079     -0.910127
  H      -3.351077     -1.129631      0.260389
  H      -4.775285     -0.395683      2.128352
  H      -5.868305     -0.864212      0.797447
  H      -5.548939      0.860265      1.128252
32
Coordinates from ORCA-job orca2 E -393.744089861006
  C       5.149055     -0.381760     -0.221305
  C       3.963488     -0.488631      0.743750
  C       2.681429      0.180019      0.211402
  C       1.803520     -0.757180     -0.629670
  C       0.548197     -0.081087     -1.203654
  C      -0.615891     -0.004349     -0.205873
  C      -1.711257      0.986448     -0.614665
  C      -2.930167      1.005721      0.318046
  C      -3.866747     -0.199316      0.166471
  C      -5.051863     -0.165568      1.134984
  H       4.903568     -0.818763     -1.207043
  H       5.431966      0.673914     -0.386500
  H       6.037732     -0.912242      0.165754
  H       4.242893     -0.049898      1.718972
  H       3.757417     -1.557839      0.943328
  H       2.955860      1.055514     -0.409702
  H       2.086655      0.583331      1.052012
  H       2.410967     -1.182058     -1.450773
  H       1.496805     -1.617110     -0.001950
  H       0.807441      0.941049     -1.542259
  H       0.210462     -0.621020     -2.107898
  H      -0.234024      0.278454      0.794415
  H      -1.048337     -1.016131     -0.088455
  H      -1.268628      1.999725     -0.659465
  H      -2.045009      0.755767     -1.646425
  H      -3.513379      1.929349      0.138961
  H      -2.584451      1.065525      1.369803
  H      -4.235646     -0.239364     -0.876980
  H      -3.297644     -1.135246      0.322228
  H      -4.720868     -0.330514      2.177389
  H      -5.798097     -0.943459      0.892410
  H      -5.565448      0.813883      1.102691
32
Coordinates from ORCA-job orca2 E -393.745109624918
  C       5.122925     -0.423580     -0.207757
  C       3.941198     -0.516012      0.763135
  C       2.665801      0.171726      0.242000
  C       1.810578     -0.724652     -0.664536
  C       0.557419     -0.031299     -1.221482
  C      -0.606191      0.034989     -0.223033
  C      -1.724082      0.992206     -0.649928
  C      -2.938591      1.012894      0.288775
  C      -3.839335     -0.224628      0.194901
  C      -5.021253     -0.182748      1.166407
  H       4.869982     -0.855414     -1.193754
  H       5.419036      0.628763     -0.371761
  H       6.006219     -0.965883      0.175331
  H       4.232544     -0.079876      1.736166
  H       3.719572     -1.581986      0.963543
  H       2.947825      1.081034     -0.325057
  H       2.055046      0.525093      1.093332
  H       2.433921     -1.092802     -1.500861
  H       1.503699     -1.623200     -0.093588
  H       0.821163      0.995150     -1.543456
  H       0.216447     -0.555713     -2.133777
  H      -0.230957      0.346272      0.771086
  H      -1.013329     -0.984901     -0.087364
  H      -1.302754      2.013017     -0.721585
  H      -2.058432      0.729670     -1.673759
  H      -3.550428      1.909168      0.070682
  H      -2.590212      1.130409      1.334619
  H      -4.212646     -0.318216     -0.843569
  H      -3.243786     -1.136500      0.387572
  H      -4.679929     -0.259410      2.215813
  H      -5.728122     -1.011895      0.981590
  H      -5.583330      0.765486      1.070312
32
Coordinates from ORCA-job orca2 E -393.745971258357
  C       5.096299     -0.469895     -0.205371
  C       3.924840     -0.541487      0.779150
  C       2.653730      0.164189      0.274628
  C       1.818290     -0.688412     -0.690204
  C       0.566734      0.020386     -1.230039
  C      -0.597725      0.075721     -0.232993
  C      -1.736616      0.998086     -0.679629
  C      -2.949701      1.018838      0.260781
  C      -3.811169     -0.248862      0.220979
  C      -4.995942     -0.200802      1.188084
  H       4.829172     -0.902234     -1.187226
  H       5.405367      0.577641     -0.376916
  H       5.976123     -1.022381      0.171194
  H       4.234535     -0.103969      1.746063
  H       3.688321     -1.602772      0.988118
  H       2.939628      1.103948     -0.238422
  H       2.030819      0.467547      1.136284
  H       2.454826     -1.002510     -1.538467
  H       1.513378     -1.620915     -0.175428
  H       0.834479      1.050713     -1.536541
  H       0.223404     -0.489336     -2.149940
  H      -0.232218      0.414690      0.755419
  H      -0.979622     -0.951411     -0.079755
  H      -1.337489      2.025722     -0.777265
  H      -2.067853      0.704046     -1.695850
  H      -3.589425      1.885113      0.004908
  H      -2.603941      1.192488      1.299631
  H      -4.180369     -0.398208     -0.812504
  H      -3.188906     -1.133004      0.452973
  H      -4.654483     -0.188972      2.240249
  H      -5.659293     -1.075703      1.060003
  H      -5.605190      0.708909      1.028085
32
Coordinates from ORCA-job orca2 E -393.746675750048
  C       5.070039     -0.515469     -0.203032
  C       3.908314     -0.566148      0.793898
  C       2.640319      0.154421      0.305352
  C       1.825955     -0.651244     -0.715768
  C       0.576116      0.072239     -1.238762
  C      -0.590105      0.114630     -0.244255
  C      -1.748774      1.002873     -0.708490
  C      -2.960224      1.023114      0.233884
  C      -3.781750     -0.271148      0.248145
  C      -4.971182     -0.216979      1.208809
  H       4.791299     -0.953303     -1.178811
  H       5.388719      0.527277     -0.386469
  H       5.947615     -1.073609      0.170422
  H       4.234969     -0.125057      1.753766
  H       3.659597     -1.622453      1.014512
  H       2.927034      1.122950     -0.150814
  H       2.004244      0.404928      1.174291
  H       2.475569     -0.911407     -1.572094
  H       1.523941     -1.614259     -0.258486
  H       0.847958      1.106600     -1.528134
  H       0.231500     -0.421331     -2.167137
  H      -0.235436      0.477844      0.739262
  H      -0.947229     -0.919046     -0.075835
  H      -1.371359      2.036049     -0.831365
  H      -2.076740      0.679075     -1.716696
  H      -3.626699      1.857900     -0.056100
  H      -2.618615      1.250572      1.263687
  H      -4.142572     -0.477345     -0.778578
  H      -3.133615     -1.124737      0.519660
  H      -4.634908     -0.117658      2.258082
  H      -5.589812     -1.130554      1.139690
  H      -5.624168      0.648436      0.987365
32
Coordinates from ORCA-job orca2 E -393.747225975819
  C       5.044684     -0.555264     -0.191316
  C       3.885475     -0.593149      0.808846
  C       2.620726      0.138814      0.331306
  C       1.833312     -0.614624     -0.749002
  C       0.585391      0.123650     -1.254809
  C      -0.583267      0.149781     -0.263305
  C      -1.760980      1.005222     -0.741152
  C      -2.967783      1.026070      0.207029
  C      -3.748912     -0.290905      0.280161
  C      -4.941597     -0.228844      1.236222
  H       4.765278     -1.000716     -1.162928
  H       5.367046      0.484756     -0.384266
  H       5.920815     -1.112800      0.186335
  H       4.220532     -0.150195      1.765167
  H       3.628182     -1.646058      1.036505
  H       2.905468      1.135627     -0.061008
  H       1.966450      0.330470      1.201706
  H       2.498258     -0.817463     -1.608799
  H       1.534956     -1.606102     -0.354154
  H       0.861211      1.162738     -1.523213
  H       0.241036     -0.350511     -2.193472
  H      -0.239929      0.533238      0.716364
  H      -0.916145     -0.890020     -0.082918
  H      -1.404298      2.042395     -0.889867
  H      -2.088138      0.652741     -1.739927
  H      -3.660731      1.827815     -0.112807
  H      -2.628436      1.306381      1.224451
  H      -4.100677     -0.556098     -0.736162
  H      -3.075296     -1.110723      0.590847
  H      -4.612252     -0.042261      2.275780
  H      -5.515275     -1.173732      1.231087
  H      -5.635102      0.586929      0.957300
32
Coordinates from ORCA-job orca2 E -393.747616451598
  C       5.018140     -0.595943     -0.176925
  C       3.858890     -0.622385      0.823292
  C       2.598914      0.121499      0.354211
  C       1.841108     -0.574958     -0.783637
  C       0.595250      0.178252     -1.271960
  C      -0.576982      0.185147     -0.284691
  C      -1.773677      1.006453     -0.775455
  C      -2.974747      1.027782      0.179771
  C      -3.711824     -0.309563      0.315545
  C      -4.909379     -0.240391      1.265156
  H       4.742267     -1.053643     -1.143624
  H       5.340500      0.441957     -0.381727
  H       5.893830     -1.147984      0.209677
  H       4.199552     -0.178721      1.777528
  H       3.593024     -1.672305      1.055423
  H       2.880710      1.142847      0.028134
  H       1.924529      0.254001      1.220360
  H       2.522625     -0.719617     -1.642201
  H       1.547100     -1.591237     -0.453658
  H       0.874553      1.222362     -1.516788
  H       0.252609     -0.274257     -2.221957
  H      -0.247510      0.587409      0.692063
  H      -0.884959     -0.860635     -0.094562
  H      -1.438353      2.046597     -0.950941
  H      -2.099859      0.624213     -1.763457
  H      -3.695210      1.792867     -0.168205
  H      -2.638576      1.361749      1.181898
  H      -4.050769     -0.636514     -0.687097
  H      -3.012295     -1.090215      0.667290
  H      -4.592388      0.033171      2.289102
  H      -5.436101     -1.210185      1.326109
  H      -5.640970      0.519407      0.931326
32
Coordinates from ORCA-job orca2 E -393.747869453662
  C       4.990081     -0.637387     -0.164096
  C       3.830701     -0.654710      0.835998
  C       2.576442      0.103149      0.375996
  C       1.849711     -0.531757     -0.816207
  C       0.605937      0.236202     -1.286378
  C      -0.570694      0.221111     -0.304747
  C      -1.786406      1.005282     -0.810135
  C      -2.982198      1.027917      0.151458
  C      -3.670886     -0.326846      0.354263
  C      -4.877121     -0.251257      1.292601
  H       4.718976     -1.110731     -1.124466
  H       5.308302      0.399035     -0.383078
  H       5.867377     -1.179482      0.232792
  H       4.176578     -0.214039      1.789891
  H       3.555929     -1.702397      1.068170
  H       2.854573      1.144736      0.117116
  H       1.881580      0.177859      1.233045
  H       2.548511     -0.617687     -1.668816
  H       1.561279     -1.569153     -0.553184
  H       0.887740      1.285510     -1.505168
  H       0.266290     -0.192578     -2.248473
  H      -0.258211      0.642314      0.669604
  H      -0.852210     -0.830531     -0.105973
  H      -1.473587      2.047195     -1.014539
  H      -2.109843      0.590555     -1.785765
  H      -3.730865      1.751307     -0.225466
  H      -2.652311      1.418415      1.135052
  H      -3.990637     -0.719197     -0.631150
  H      -2.945913     -1.061373      0.751287
  H      -4.580580      0.108690      2.295611
  H      -5.355449     -1.239246      1.420238
  H      -5.643098      0.446258      0.904519
32
Coordinates from ORCA-job orca2 E -393.747998936030
  C       4.961374     -0.675554     -0.153480
  C       3.801220     -0.692184      0.845719
  C       2.552799      0.081819      0.397682
  C       1.858986     -0.486098     -0.846162
  C       0.617341      0.296221     -1.297232
  C      -0.564161      0.256672     -0.322369
  C      -1.798710      0.999642     -0.845340
  C      -2.990401      1.026333      0.121001
  C      -3.626272     -0.341233      0.397634
  C      -4.845756     -0.259273      1.318469
  H       4.697148     -1.163577     -1.108320
  H       5.270207      0.361230     -0.384373
  H       5.842790     -1.204134      0.252353
  H       4.150716     -0.262778      1.803480
  H       3.518276     -1.739799      1.068299
  H       2.826422      1.139583      0.208146
  H       1.837247      0.099149      1.240875
  H       2.575934     -0.512019     -1.687619
  H       1.577653     -1.540983     -0.653279
  H       0.900575      1.350792     -1.487207
  H       0.281797     -0.106444     -2.272070
  H      -0.271530      0.697764      0.649390
  H      -0.817255     -0.800451     -0.114594
  H      -1.509506      2.041441     -1.082640
  H      -2.117064      0.548253     -1.806180
  H      -3.767329      1.701408     -0.287649
  H      -2.671377      1.478578      1.081493
  H      -3.918757     -0.804125     -0.565521
  H      -2.877187     -1.020593      0.845417
  H      -4.578570      0.186128      2.294995
  H      -5.275685     -1.258141      1.513535
  H      -5.640924      0.369535      0.875544
32
Coordinates from ORCA-job orca2 E -393.748028575408
  C       4.948539     -0.691594     -0.152054
  C       3.788586     -0.712630      0.847486
  C       2.543935      0.072325      0.407705
  C       1.862050     -0.465320     -0.855813
  C       0.622712      0.325036     -1.298254
  C      -0.560983      0.275000     -0.326349
  C      -1.804139      0.996122     -0.860128
  C      -2.995558      1.025672      0.106277
  C      -3.603352     -0.346508      0.420312
  C      -4.833960     -0.263328      1.326299
  H       4.686500     -1.183749     -1.105418
  H       5.251380      0.346281     -0.386003
  H       5.832956     -1.214090      0.255045
  H       4.140131     -0.295784      1.809996
  H       3.500758     -1.761336      1.058252
  H       2.818618      1.134443      0.246094
  H       1.820352      0.069160      1.244231
  H       2.586730     -0.468478     -1.691083
  H       1.581583     -1.525402     -0.691965
  H       0.907413      1.381562     -1.474635
  H       0.288543     -0.064865     -2.278784
  H      -0.278339      0.727000      0.643416
  H      -0.800293     -0.784119     -0.112465
  H      -1.526676      2.036856     -1.115447
  H      -2.118099      0.524598     -1.812705
  H      -3.785914      1.673781     -0.320152
  H      -2.685560      1.510306      1.053962
  H      -3.875526     -0.846409     -0.530370
  H      -2.843734     -0.993721      0.897160
  H      -4.587500      0.220542      2.289918
  H      -5.241908     -1.265199      1.550428
  H      -5.639246      0.331011      0.855043
32
Coordinates from ORCA-job orca2 E -393.748048297640
  C       4.941983     -0.699188     -0.152422
  C       3.780772     -0.730100      0.845770
  C       2.540119      0.065714      0.413731
  C       1.862527     -0.452766     -0.860172
  C       0.626228      0.345014     -1.296598
  C      -0.558852      0.288414     -0.326305
  C      -1.807964      0.992804     -0.869069
  C      -3.000182      1.025549      0.096114
  C      -3.586201     -0.349084      0.439326
  C      -4.829053     -0.265593      1.328566
  H       4.682532     -1.189558     -1.107437
  H       5.239458      0.340955     -0.383139
  H       5.828834     -1.218440      0.253416
  H       4.132164     -0.330259      1.815455
  H       3.488579     -1.780926      1.039264
  H       2.819500      1.128730      0.266849
  H       1.812468      0.054659      1.246638
  H       2.591586     -0.445452     -1.691599
  H       1.579452     -1.514530     -0.712394
  H       0.913058      1.402583     -1.462821
  H       0.292263     -0.034943     -2.281118
  H      -0.283100      0.749001      0.641466
  H      -0.788323     -0.771741     -0.106864
  H      -1.538869      2.031988     -1.139158
  H      -2.117938      0.504909     -1.814714
  H      -3.800093      1.651461     -0.345511
  H      -2.699183      1.536002      1.033196
  H      -3.837555     -0.878996     -0.500897
  H      -2.820307     -0.968501      0.942259
  H      -4.602627      0.244254      2.283701
  H      -5.223185     -1.268812      1.570592
  H      -5.638094      0.304016      0.833873
32
Coordinates from ORCA-job orca2 E -393.748057366788
  C       4.943279     -0.696907     -0.151734
  C       3.778657     -0.739185      0.842339
  C       2.540652      0.062618      0.414016
  C       1.861061     -0.451096     -0.861052
  C       0.626871      0.350799     -1.295181
  C      -0.558711      0.292195     -0.325248
  C      -1.809669      0.990792     -0.871432
  C      -3.002459      1.025950      0.092905
  C      -3.579846     -0.349137      0.449046
  C      -4.830089     -0.264774      1.327850
  H       4.687763     -1.180762     -1.111112
  H       5.238107      0.345837     -0.373910
  H       5.830601     -1.216524      0.252517
  H       4.126631     -0.352892      1.818699
  H       3.484627     -1.792231      1.020631
  H       2.824916      1.124514      0.268362
  H       1.812974      0.053842      1.246887
  H       2.590488     -0.444388     -1.692148
  H       1.574494     -1.512178     -0.715288
  H       0.915389      1.408623     -1.456726
  H       0.292491     -0.024403     -2.281377
  H      -0.284926      0.755726      0.641690
  H      -0.784969     -0.768201     -0.103650
  H      -1.543045      2.028951     -1.147781
  H      -2.118374      0.496174     -1.814021
  H      -3.805840      1.642086     -0.356116
  H      -2.705870      1.547823      1.025094
  H      -3.819447     -0.893103     -0.486188
  H      -2.812633     -0.955273      0.965892
  H      -4.613997      0.253653      2.280717
  H      -5.221256     -1.268103      1.574353
  H      -5.637872      0.296737      0.821965
32
Coordinates from ORCA-job orca2 E -393.748060275725
  C       4.946602     -0.692242     -0.150276
  C       3.779296     -0.740571      0.840362
  C       2.541862      0.061820      0.412103
  C       1.859772     -0.454066     -0.860859
  C       0.626073      0.348494     -1.295117
  C      -0.559668      0.290214     -0.325311
  C      -1.809910      0.990450     -0.870890
  C      -3.002670      1.026379      0.093428
  C      -3.580450     -0.348433      0.450325
  C      -4.831797     -0.263033      1.327458
  H       4.693833     -1.170546     -1.113166
  H       5.241637      0.351894     -0.365520
  H       5.833052     -1.213961      0.253173
  H       4.124057     -0.358728      1.819630
  H       3.485693     -1.794772      1.012665
  H       2.827759      1.122861      0.263342
  H       1.815401      0.056329      1.246054
  H       2.588046     -0.450524     -1.693018
  H       1.571807     -1.514313     -0.711972
  H       0.915167      1.406262     -1.456062
  H       0.291580     -0.026107     -2.281494
  H      -0.285296      0.752742      0.641938
  H      -0.786853     -0.770137     -0.104434
  H      -1.542224      2.028495     -1.146655
  H      -2.119235      0.496655     -1.813703
  H      -3.805795      1.642377     -0.356241
  H      -2.706167      1.548677      1.025366
  H      -3.818590     -0.893638     -0.484513
  H      -2.813842     -0.953756      0.969055
  H      -4.616391      0.254462      2.280947
  H      -5.224676     -1.266021      1.572670
  H      -5.638076      0.299899      0.820714
32
Coordinates from ORCA-job orca2 E -393.748061519777
  C       4.948176     -0.689707     -0.148924
  C       3.779188     -0.741557      0.839459
  C       2.541903      0.060815      0.411144
  C       1.859162     -0.455437     -0.861283
  C       0.625631      0.347448     -1.295476
  C      -0.560426      0.288901     -0.326144
  C      -1.810152      0.990323     -0.871232
  C      -3.002809      1.026601      0.093183
  C      -3.580300     -0.348040      0.451347
  C      -4.831890     -0.261927      1.328061
  H       4.697000     -1.163706     -1.114372
  H       5.244113      0.355230     -0.358989
  H       5.833635     -1.213667      0.253818
  H       4.121881     -0.361678      1.820238
  H       3.486125     -1.796416      1.008758
  H       2.828061      1.121721      0.261843
  H       1.815843      0.055789      1.245461
  H       2.586964     -0.452622     -1.693904
  H       1.570905     -1.515497     -0.711676
  H       0.915008      1.405262     -1.455676
  H       0.291382     -0.026540     -2.282170
  H      -0.286059      0.750503      0.641560
  H      -0.788112     -0.771534     -0.106184
  H      -1.541807      2.028402     -1.146254
  H      -2.119921      0.497449     -1.814373
  H      -3.806073      1.642084     -0.356958
  H      -2.706356      1.549607      1.024723
  H      -3.817872     -0.894499     -0.482898
  H      -2.813671     -0.952501      0.971084
  H      -4.616744      0.256661      2.281003
  H      -5.224677     -1.264684      1.574321
  H      -5.638109      0.300378      0.820509
