14
Properties=species:S:1:pos:R:3 energy=-4305.138647313924 name=nbu_straight smiles=CCCC config_type=start_0 pbc="F F F"
C       -1.87910676      -0.17763245      -0.18729440
C       -0.62861958      -0.23311600       0.69005174
C        0.64848891       0.10112310      -0.07081460
C        1.89053452       0.06801190       0.83106242
H       -2.81232125      -0.43580524       0.38827779
H       -2.18846458       0.78147103      -0.44786029
H       -1.87247788      -0.77535193      -1.15491443
H       -0.55448240       0.40796777       1.55345391
H       -0.51398721      -1.22021443       1.16359900
H        0.76683278      -0.60544306      -0.87118783
H        0.56426553       1.12711004      -0.56678112
H        1.75062212       0.79709119       1.65272842
H        2.04307592      -0.90905440       1.36951919
H        2.86869128       0.31230404       0.23286178
14
Properties=species:S:1:pos:R:3 energy=-4305.138647313924 name=nbu_straight smiles=CCCC config_type=start_1 pbc="F F F"
C       -1.89256664      -0.17884792      -0.16721660
C       -0.62641361      -0.20270737       0.69669606
C        0.65428404       0.08840504      -0.05752132
C        1.89306798       0.06080440       0.80812044
H       -2.82065876      -0.43623676       0.39952287
H       -2.05700891       0.81415482      -0.63417360
H       -1.82675474      -0.86139823      -1.04717345
H       -0.66917389       0.49504033       1.52777619
H       -0.56534158      -1.24376835       1.16255089
H        0.77604145      -0.60862490      -0.90537631
H        0.61537902       1.07307995      -0.58579592
H        1.75714387       0.75265099       1.61944343
H        2.07046729      -0.94285557       1.39135937
H        2.80681629       0.32771775       0.18804795
14
Properties=species:S:1:pos:R:3 energy=-4305.138647313924 name=nbu_straight smiles=CCCC config_type=start_2 pbc="F F F"
C       -1.88427790      -0.17085042      -0.17574430
C       -0.63248492      -0.19938593       0.69464030
C        0.65140088       0.08612131      -0.06186316
C        1.89416008       0.05439097       0.81872382
H       -2.79926018      -0.41336777       0.42153263
H       -2.02559731       0.82918748      -0.65851603
H       -1.81625943      -0.86649535      -0.97748951
H       -0.74829317       0.54789144       1.53571179
H       -0.53759818      -1.30874580       1.16628366
H        0.76348761      -0.61137379      -0.83715709
H        0.58118761       1.10744961      -0.61800872
H        1.84371173       0.77242793       1.65850044
H        2.04024758      -1.01827819       1.25942769
H        2.78029659       0.30001408       0.21743142
14
Properties=species:S:1:pos:R:3 energy=-4305.138647313924 name=nbu_straight smiles=CCCC config_type=start_3 pbc="F F F"
C       -1.89288438      -0.17957687      -0.18687296
C       -0.64043708      -0.21577128       0.71010607
C        0.65521695       0.09883328      -0.06407001
C        1.90383130       0.06005337       0.81561943
H       -2.76093324      -0.41565596       0.40147314
H       -1.98027010       0.84058543      -0.65708756
H       -1.79694767      -0.93923671      -0.96363914
H       -0.81698267       0.51370117       1.52887121
H       -0.54575574      -1.17874077       1.17888981
H        0.75725079      -0.63941813      -0.92873543
H        0.54551435       1.08450508      -0.47261709
H        1.88044239       0.77980318       1.63691486
H        2.01921246      -0.91521972       1.18298775
H        2.81704351       0.28840500       0.27238797
14
Properties=species:S:1:pos:R:3 energy=-4305.138647313924 name=nbu_straight smiles=CCCC config_type=start_4 pbc="F F F"
C       -1.90343182      -0.16432628      -0.17989513
C       -0.63112519      -0.20668217       0.69868180
C        0.66656890       0.07954231      -0.06430666
C        1.88781923       0.06376234       0.81668030
H       -2.77931779      -0.38799145       0.39111802
H       -1.92041822       0.87309675      -0.69708783
H       -1.79090295      -0.99023924      -0.90266985
H       -0.81026743       0.52634856       1.53366375
H       -0.48934684      -1.30484391       1.15834004
H        0.74557926      -0.64701476      -0.84292241
H        0.58323940       1.09556416      -0.56257077
H        1.85895608       0.82668399       1.64959706
H        2.02049074      -0.94816710       1.21079729
H        2.77090872       0.27121729       0.28427661
14
Properties=species:S:1:pos:R:3 energy=-4305.138647313924 name=nbu_straight smiles=CCCC config_type=start_5 pbc="F F F"
C       -1.89864236      -0.18947407      -0.17047000
C       -0.63417589      -0.20705060       0.70387395
C        0.65423601       0.10576373      -0.06683594
C        1.90552943       0.05545681       0.81751892
H       -2.84983038      -0.43072113       0.40848130
H       -2.11558046       0.79541352      -0.57190769
H       -1.83146623      -0.82280908      -1.08727208
H       -0.63688205       0.47591726       1.53550084
H       -0.55830552      -1.19967534       1.16218389
H        0.77987024      -0.60878095      -0.96810307
H        0.56666226       1.11148648      -0.57834088
H        1.83683037       0.76747325       1.65356452
H        2.05250086      -0.96045173       1.28889946
H        2.85996236       0.27703107       0.22550844
14
Properties=species:S:1:pos:R:3 energy=-4305.138647313924 name=nbu_straight smiles=CCCC config_type=start_6 pbc="F F F"
C       -1.87752978      -0.18687570      -0.18502015
C       -0.65901743      -0.22356180       0.70236273
C        0.65977847       0.11539187      -0.07184672
C        1.90386908       0.05989185       0.83060797
H       -2.76002551      -0.41730666       0.40836829
H       -2.14195794       0.80225762      -0.52162102
H       -1.88770211      -0.85066813      -1.11803284
H       -0.60169089       0.46980637       1.54576737
H       -0.50100292      -1.23623005       1.17461586
H        0.78375814      -0.58943653      -0.90220781
H        0.56514366       1.12503262      -0.55940035
H        1.84958994       0.80355587       1.64836173
H        2.03002029      -0.98462648       1.20684331
H        2.76573230       0.28075144       0.28102079
14
Properties=species:S:1:pos:R:3 energy=-4305.138647313924 name=nbu_straight smiles=CCCC config_type=start_7 pbc="F F F"
C       -1.89676846      -0.18222127      -0.16811217
C       -0.63502544      -0.21596791       0.69577175
C        0.65666211       0.09021531      -0.06355745
C        1.89936902       0.06874124       0.81365159
H       -2.81519840      -0.40339888       0.43617913
H       -1.99422813       0.85567166      -0.64107705
H       -1.79115422      -0.96934896      -0.99957682
H       -0.73361321       0.47873861       1.52468499
H       -0.57927745      -1.17862974       1.17106340
H        0.80502639      -0.63633911      -0.93802888
H        0.56467062       1.09458577      -0.51400438
H        1.82292804       0.76373729       1.62647985
H        2.03676246      -0.85878793       1.28010130
H        2.82036532       0.30553322       0.19813385
14
Properties=species:S:1:pos:R:3 energy=-4305.138647313924 name=nbu_straight smiles=CCCC config_type=start_8 pbc="F F F"
C       -1.89078760      -0.16598554      -0.15821916
C       -0.64522229      -0.19927868       0.69238317
C        0.66022237       0.10394460      -0.06202514
C        1.90705457       0.02901507       0.81015934
H       -2.78586172      -0.43524481       0.43373480
H       -2.09811536       0.79956856      -0.61626226
H       -1.83322954      -0.85445015      -1.05497892
H       -0.70815154       0.56224964       1.52762445
H       -0.52015167      -1.20879478       1.16084532
H        0.76670214      -0.64976642      -0.91305880
H        0.62583298       1.09874482      -0.54642233
H        1.75579798       0.71625406       1.61315482
H        2.04277247      -0.95980715       1.30926929
H        2.80680747       0.30044574       0.17585323
14
Properties=species:S:1:pos:R:3 energy=-4305.138647313924 name=nbu_straight smiles=CCCC config_type=start_9 pbc="F F F"
C       -1.88463363      -0.19009426      -0.17536880
C       -0.65394798      -0.20966288       0.70195356
C        0.65204877       0.11226726      -0.06479701
C        1.91293589       0.04272918       0.81745092
H       -2.75289258      -0.42300519       0.41675485
H       -2.10670051       0.80424734      -0.59041102
H       -1.86679541      -0.85151767      -1.10130882
H       -0.68190903       0.51348057       1.55381160
H       -0.55606336      -1.19808994       1.15923581
H        0.82195775      -0.56590234      -0.87013449
H        0.52224247       1.12448379      -0.57079999
H        1.82291063       0.78264845       1.62505811
H        2.05801230      -0.93551281       1.26073848
H        2.84953119       0.26685367       0.24332926
14
Properties=species:S:1:pos:R:3 energy=-4305.138647313924 name=nbu_straight smiles=CCCC config_type=start_10 pbc="F F F"
C       -1.88939745      -0.17287325      -0.18638317
C       -0.63912560      -0.21041961       0.70710086
C        0.65655961       0.09260062      -0.06399642
C        1.89940063       0.05985594       0.81496695
H       -2.82187961      -0.39870044       0.40770414
H       -2.04165775       0.82416378      -0.59976703
H       -1.81606169      -0.91733031      -0.99604233
H       -0.72199389       0.48663005       1.54193408
H       -0.56146004      -1.12820856       1.17516402
H        0.74625661      -0.66055674      -0.96514738
H        0.60508275       1.06033431      -0.49524268
H        1.88140764       0.79175719       1.64582164
H        2.04810971      -1.01739847       1.25117101
H        2.78026102       0.31086368       0.25074976
14
Properties=species:S:1:pos:R:3 energy=-4305.138647313924 name=nbu_straight smiles=CCCC config_type=start_11 pbc="F F F"
C       -1.88309055      -0.19259817      -0.17475982
C       -0.66503022      -0.22311584       0.69688327
C        0.65070525       0.12711663      -0.05804824
C        1.93181454       0.04927485       0.81216186
H       -2.78858992      -0.42412904       0.41683031
H       -2.02558282       0.83480933      -0.66166070
H       -1.85829565      -0.91197215      -0.98910724
H       -0.76558512       0.51433316       1.53644615
H       -0.58219716      -1.17321340       1.18426420
H        0.77948416      -0.58708413      -0.92178405
H        0.48433245       1.12242934      -0.50914684
H        1.85022639       0.73232142       1.63160098
H        2.06637363      -0.93271750       1.26549847
H        2.85502746       0.27808877       0.20909378
14
Properties=species:S:1:pos:R:3 energy=-4305.138647313924 name=nbu_straight smiles=CCCC config_type=start_12 pbc="F F F"
C       -1.88762009      -0.17670931      -0.16142437
C       -0.61814165      -0.21619226       0.70001185
C        0.64679946       0.08493448      -0.07875600
C        1.88554885       0.07384883       0.82497143
H       -2.80371105      -0.45240917       0.40917741
H       -2.10253072       0.77928655      -0.54568946
H       -1.85473360      -0.82519660      -1.15232654
H       -0.57315041       0.47231908       1.56394207
H       -0.59386082      -1.25374300       1.13832680
H        0.75904014      -0.61550540      -0.89143728
H        0.59754046       1.11251774      -0.61477042
H        1.85336409       0.80129790       1.64718195
H        2.01297977      -0.92598212       1.24864523
H        2.81303975       0.29824432       0.25693931
14
Properties=species:S:1:pos:R:3 energy=-4305.138647313924 name=nbu_straight smiles=CCCC config_type=start_13 pbc="F F F"
C       -1.87999840      -0.16943676      -0.18273269
C       -0.64032532      -0.21541031       0.70645103
C        0.66223882       0.09321753      -0.06187385
C        1.89629645       0.05741386       0.80826741
H       -2.80747785      -0.40373045       0.39530197
H       -2.04050052       0.82940117      -0.61771394
H       -1.81140586      -0.90483236      -0.99711770
H       -0.78436742       0.45550513       1.51583667
H       -0.56295139      -1.12965066       1.18804448
H        0.74938265      -0.65313859      -0.95437151
H        0.56120272       1.05500421      -0.45060185
H        1.81727282       0.81535566       1.66001195
H        2.05888920      -0.96575322       1.25951942
H        2.78967229       0.29366596       0.23620279
14
Properties=species:S:1:pos:R:3 energy=-4305.138647313924 name=nbu_straight smiles=CCCC config_type=start_14 pbc="F F F"
C       -1.89183631      -0.20030657      -0.18683758
C       -0.62981354      -0.21879700       0.70391889
C        0.65168194       0.11075607      -0.06527622
C        1.90552176       0.06534219       0.81832016
H       -2.80555156      -0.41012386       0.38665538
H       -2.10789740       0.77557150      -0.57525073
H       -1.82604533      -0.84994251      -1.06612963
H       -0.66388713       0.50411335       1.55314363
H       -0.57332035      -1.21309499       1.15529922
H        0.76939633      -0.61968518      -0.89552124
H        0.51252059       1.10682040      -0.51043404
H        1.77255915       0.77961643       1.63916694
H        2.03440340      -0.87133821       1.33832418
H        2.88907825       0.29475881       0.20958473
14
Properties=species:S:1:pos:R:3 energy=-4305.138647313924 name=nbu_straight smiles=CCCC config_type=start_15 pbc="F F F"
C       -1.89133076      -0.17540390      -0.16656274
C       -0.63121814      -0.20981631       0.68776575
C        0.65603922       0.08763793      -0.05996305
C        1.89216540       0.06372118       0.81676129
H       -2.76697771      -0.37891882       0.43388121
H       -2.01752166       0.81984172      -0.65411469
H       -1.80808495      -0.93969627      -0.97818356
H       -0.79505827       0.53874790       1.51134413
H       -0.53495705      -1.30500212       1.16239599
H        0.77881621      -0.59038641      -0.85069805
H        0.55444815       1.13247820      -0.60041126
H        1.83379749       0.77299498       1.63037878
H        2.03245300      -0.95492592       1.25131811
H        2.84250442       0.29289899       0.23504369
14
Properties=species:S:1:pos:R:3 energy=-4305.138647313924 name=nbu_straight smiles=CCCC config_type=start_16 pbc="F F F"
C       -1.91063774      -0.15853042      -0.15285490
C       -0.60270617      -0.21415361       0.68573035
C        0.63935551       0.06911951      -0.06714522
C        1.88534675       0.07048871       0.81844515
H       -2.81158979      -0.39733392       0.41949197
H       -1.97112791       0.84037559      -0.64503131
H       -1.78117508      -0.96284323      -1.05693947
H       -0.65352333       0.53641133       1.52922566
H       -0.53943437      -1.24388527       1.16824651
H        0.73706894      -0.67389850      -0.91856430
H        0.60172560       1.07632832      -0.55116881
H        1.70974413       0.67667331       1.62563559
H        2.05880237      -0.82946935       1.39327654
H        2.93923284       0.35610920       0.10309498
14
Properties=species:S:1:pos:R:3 energy=-4305.138647313924 name=nbu_straight smiles=CCCC config_type=start_17 pbc="F F F"
C       -1.89792050      -0.19049406      -0.16912920
C       -0.65139555      -0.20992758       0.69978549
C        0.65663883       0.11193388      -0.06590769
C        1.92285107       0.04865923       0.80785563
H       -2.80978680      -0.42653812       0.42559938
H       -2.03691337       0.81916884      -0.67240511
H       -1.79975179      -0.94880454      -0.97416040
H       -0.79745739       0.52208102       1.53033284
H       -0.55242129      -1.23050222       1.16837113
H        0.81247045      -0.58092388      -0.85637221
H        0.52390260       1.14051650      -0.58262014
H        1.88997349       0.83234004       1.64131072
H        2.03734531      -0.92977226       1.25758183
H        2.79821272       0.26149905       0.26769755
14
Properties=species:S:1:pos:R:3 energy=-4305.138647313924 name=nbu_straight smiles=CCCC config_type=start_18 pbc="F F F"
C       -1.87802432      -0.17624195      -0.18176226
C       -0.63784723      -0.22248285       0.70251163
C        0.64778756       0.10158408      -0.06114506
C        1.90557440       0.05865007       0.81264229
H       -2.80740013      -0.37934079       0.41653187
H       -2.04694763       0.80623009      -0.66125220
H       -1.82262941      -0.87933501      -1.00787570
H       -0.75565651       0.51145378       1.54346043
H       -0.52966446      -1.18466752       1.18492818
H        0.75568266      -0.64620312      -0.92445911
H        0.53424777       1.06910650      -0.49213154
H        1.79013360       0.77645454       1.64777075
H        2.03798050      -0.94300131       1.29413236
H        2.82257123       0.31218588       0.20849285
14
Properties=species:S:1:pos:R:3 energy=-4305.138647313924 name=nbu_straight smiles=CCCC config_type=start_19 pbc="F F F"
C       -1.87958652      -0.18005851      -0.20513926
C       -0.66488106      -0.23053639       0.69895220
C        0.65945500       0.11800131      -0.04968214
C        1.92251400       0.04966356       0.81983172
H       -2.81380416      -0.42595911       0.37003527
H       -2.01690648       0.79947786      -0.70866466
H       -1.82454705      -0.94499927      -0.90081367
H       -0.89126292       0.49062784       1.51270541
H       -0.51239959      -1.22307382       1.18624631
H        0.78552252      -0.53019883      -0.78501949
H        0.48507848       1.16853891      -0.56411196
H        1.87859661       0.80898972       1.65511536
H        2.06503222      -0.92637571       1.28158338
H        2.82305226       0.27911343       0.26120582
14
Properties=species:S:1:pos:R:3 energy=-4305.138647313924 name=nbu_straight smiles=CCCC config_type=start_20 pbc="F F F"
C       -1.88632407      -0.16726744      -0.17939827
C       -0.64681379      -0.22191256       0.69891934
C        0.66459472       0.09129774      -0.05589011
C        1.90425551       0.05934950       0.81734078
H       -2.79725441      -0.42732508       0.38581755
H       -1.99363813       0.81602337      -0.70332847
H       -1.83057941      -0.91550816      -0.97755611
H       -0.83496961       0.54895063       1.51524533
H       -0.51269625      -1.27915072       1.16341927
H        0.77747984      -0.56438458      -0.82152795
H        0.55247235       1.15305746      -0.59329216
H        1.82384057       0.79828480       1.63888809
H        2.05461475      -0.98863420       1.26008953
H        2.76035680       0.30241973       0.23782622
14
Properties=species:S:1:pos:R:3 energy=-4305.138647313924 name=nbu_straight smiles=CCCC config_type=start_21 pbc="F F F"
C       -1.88626238      -0.18339962      -0.18152020
C       -0.64436436      -0.20115434       0.70753789
C        0.65574452       0.09165719      -0.06219359
C        1.89924620       0.05159574       0.81373598
H       -2.79616973      -0.40466743       0.40468420
H       -1.98607001       0.84536019      -0.66501965
H       -1.79721602      -0.94361428      -0.96958332
H       -0.80167471       0.54814576       1.52668005
H       -0.48090236      -1.23414353       1.17556120
H        0.76416824      -0.60555660      -0.87591202
H        0.56678985       1.10846598      -0.56759072
H        1.85603217       0.83530578       1.63787498
H        2.03170632      -0.95369784       1.22996537
H        2.77816266       0.28098023       0.24963457
14
Properties=species:S:1:pos:R:3 energy=-4305.138647313924 name=nbu_straight smiles=CCCC config_type=start_22 pbc="F F F"
C       -1.89391595      -0.18819789      -0.18396907
C       -0.63335450      -0.23365178       0.70694218
C        0.64234119       0.11174382      -0.07938715
C        1.90848884       0.07537387       0.82055450
H       -2.81873237      -0.38423761       0.39362965
H       -2.08039946       0.77377440      -0.55750093
H       -1.83480029      -0.89767193      -1.03734050
H       -0.67192142       0.41809446       1.54489091
H       -0.54503120      -1.16818228       1.16638115
H        0.73846397      -0.63693811      -0.92640404
H        0.57414492       1.10242297      -0.51383377
H        1.92856641       0.85968773       1.67959040
H        2.04124456      -0.91848592       1.21127394
H        2.81261407       0.24954960       0.34565017
14
Properties=species:S:1:pos:R:3 energy=-4305.138647313924 name=nbu_straight smiles=CCCC config_type=start_23 pbc="F F F"
C       -1.89198837      -0.17988322      -0.15135563
C       -0.62706244      -0.21789473       0.69066022
C        0.63935484       0.09083757      -0.06185249
C        1.90685812       0.06596097       0.80079907
H       -2.81929862      -0.39881318       0.43186649
H       -1.93108997       0.84431899      -0.76856802
H       -1.77227071      -1.00642881      -0.89113505
H       -0.87054437       0.62949763       1.53650459
H       -0.57405110      -1.22148526       1.17118307
H        0.74026068      -0.62875275      -0.89146920
H        0.56808804       1.09587403      -0.52935594
H        1.85878768       0.72335286       1.62449890
H        2.05005227      -0.89265477       1.27727169
H        2.85173628       0.32786086       0.17715540
14
Properties=species:S:1:pos:R:3 energy=-4305.138647313924 name=nbu_straight smiles=CCCC config_type=start_24 pbc="F F F"
C       -1.90570681      -0.19002937      -0.16068986
C       -0.62131250      -0.22793666       0.70007461
C        0.64385194       0.10864116      -0.07365760
C        1.91291347       0.07540287       0.81681563
H       -2.82507996      -0.42234187       0.41530818
H       -2.08686504       0.78771622      -0.53562204
H       -1.84417759      -0.88142709      -1.12449195
H       -0.63390350       0.44669970       1.53857171
H       -0.60131830      -1.16841380       1.15799622
H        0.77476942      -0.64518780      -1.00343628
H        0.59641083       1.06681361      -0.50530216
H        1.80321642       0.78788346       1.64401099
H        2.03174760      -0.89494732       1.28825471
H        2.85559138       0.31147024       0.21165440
