14
Properties=species:S:1:pos:R:3 energy=-4305.117114564319 name=nbu_bent smiles=CCCC config_type=start_0 pbc="F F F"
C       -1.52940429       0.37652520       0.02268318
C       -0.53954849      -0.42772471      -0.66405276
C        0.74192894      -0.78880756       0.19159951
C        1.54925749       0.47180180       0.41038645
H       -1.32617966       1.64146827       0.20335595
H       -1.66834142       0.10407278       0.79742796
H       -2.27041640       0.16413953      -0.13437816
H       -0.44836320      -0.04892117      -1.71972137
H       -1.07508887      -0.66130818      -0.87316951
H        0.39347951      -1.78306547       0.32600916
H        1.55665469      -1.94999669       0.09047173
H        2.40754143       0.03585207       0.88708517
H        1.00304191       1.14483218       1.00112783
H        1.79127885       1.12239064      -0.76260303
14
Properties=species:S:1:pos:R:3 energy=-4305.117114564319 name=nbu_bent smiles=CCCC config_type=start_1 pbc="F F F"
C       -1.58144529       0.37974987       0.04323603
C       -0.47643417      -0.42515939      -0.68467540
C        0.74268885      -0.81070878       0.14614547
C        1.55616154       0.50769427       0.42825498
H       -1.26976045       1.24008535       0.13940237
H       -1.75722678      -0.02135070       0.89046127
H       -2.33973910       0.49300644      -0.66377756
H       -0.05719954       0.19480080      -1.68345353
H       -1.12737148      -1.66970150      -1.06797976
H        0.19687456      -1.45388184       1.27874961
H        1.40102991      -1.49735162      -0.55683144
H        1.99079088       0.09053768       0.91417226
H        1.19756362       1.04495587       1.54979992
H        1.90495059       1.11475311      -0.65623832
14
Properties=species:S:1:pos:R:3 energy=-4305.117114564319 name=nbu_bent smiles=CCCC config_type=start_2 pbc="F F F"
C       -1.55261976       0.35756811      -0.09684589
C       -0.56684606      -0.57268322      -0.64461409
C        0.67261987      -0.68129272       0.11539729
C        1.66257010       0.47139856       0.49320569
H       -1.28647063       1.43686154       0.07624439
H       -2.08077805      -0.25549225       1.08772884
H       -2.52718482       0.49127163      -0.74323927
H        0.06742133      -0.18313562      -1.64667146
H       -0.75232395      -1.13493368      -0.80077281
H        0.36761420      -1.10805739       1.10197628
H        1.05725191      -1.54449090      -0.17372236
H        2.27659844       0.24140967       0.96875388
H        1.08008577       1.48220175       1.45455401
H        2.23803118       1.02188407      -0.39574402
14
Properties=species:S:1:pos:R:3 energy=-4305.117114564319 name=nbu_bent smiles=CCCC config_type=start_3 pbc="F F F"
C       -1.55945082       0.24845811       0.07434175
C       -0.56282123      -0.50809988      -0.71131388
C        0.65176398      -0.65289507       0.13507978
C        1.68939359       0.47612269       0.40160092
H       -1.25176317       1.21403890       0.28005020
H       -2.22144621      -0.25148685       1.34286953
H       -2.64057212       0.64173332      -0.85911895
H        0.06378978      -0.16972515      -1.50500638
H       -1.31979079      -0.48069663      -0.88441171
H        0.88748895      -1.08808537       0.43811627
H        1.09355809      -1.73953358       0.26769914
H        2.16365081      -0.31608452       0.76606012
H        1.09033872       1.62751815       1.59530197
H        2.53711437       1.14424224      -0.90061984
14
Properties=species:S:1:pos:R:3 energy=-4305.117114564319 name=nbu_bent smiles=CCCC config_type=start_4 pbc="F F F"
C       -1.57772121       0.33864378       0.22490388
C       -0.47279949      -0.39083601      -0.70774814
C        0.74456935      -0.80954622       0.12123028
C        1.53945474       0.48849162       0.35859216
H       -1.08248394       1.53065023       0.49953365
H       -1.86427551      -0.08871736       0.51890160
H       -2.39971316       0.26398517      -0.83751463
H       -0.16206723       0.22657436      -1.61429650
H       -1.40530603      -1.29925409      -0.95595649
H        0.36649901      -1.51591702       0.80358872
H        1.36168344      -1.49778528      -0.44072594
H        2.38231660      -0.22813341       0.86076012
H        0.97474557       1.32652045       1.33297364
H        2.05761016       1.11298668      -0.78571444
14
Properties=species:S:1:pos:R:3 energy=-4305.117114564319 name=nbu_bent smiles=CCCC config_type=start_5 pbc="F F F"
C       -1.61144009       0.31094745       0.09507859
C       -0.43821319      -0.54356350      -0.73636471
C        0.63322061      -0.75945767       0.13390748
C        1.61339826       0.56811395       0.46145461
H       -1.27891388       1.36459714       0.30592815
H       -1.83269639      -0.17768904       0.94721715
H       -2.36120843       0.37303327      -0.65661440
H       -0.08346099      -0.04692653      -1.77826128
H       -1.22674854      -1.34408011      -1.07887294
H        0.51615121      -1.20677354       0.99224963
H        1.13699310      -1.44466223      -0.37706539
H        2.29048269      -0.09934940       0.87860399
H        1.13283634       1.78681099       1.55708331
H        2.37079388       1.23053674      -0.89763441
14
Properties=species:S:1:pos:R:3 energy=-4305.117114564319 name=nbu_bent smiles=CCCC config_type=start_6 pbc="F F F"
C       -1.58998152       0.37005289       0.03243238
C       -0.46637723      -0.47265663      -0.63294358
C        0.64839030      -0.79442906       0.02279032
C        1.62235006       0.45388832       0.49262904
H       -1.08849088       1.49266929       0.14265047
H       -1.93880614      -0.10289573       1.17217047
H       -2.51360934       0.73939110      -0.85737327
H        0.07256366       0.13136228      -1.50459913
H       -1.24129539      -1.40751123      -0.98844607
H        0.31461972      -1.17216055       0.98890974
H        1.09645188      -1.54874985      -0.19739020
H        3.00454205       0.32976296       0.99889735
H        1.03686524       1.26897518       0.78751250
H        1.71320722       0.93275944      -0.18197821
14
Properties=species:S:1:pos:R:3 energy=-4305.117114564319 name=nbu_bent smiles=CCCC config_type=start_7 pbc="F F F"
C       -1.53995442       0.37750773       0.09593110
C       -0.47445749      -0.57680396      -0.70387207
C        0.65732954      -0.76208828       0.10201910
C        1.57154724       0.57381138       0.45959124
H       -1.30387617       1.38750793       0.36930064
H       -1.83038204      -0.16446315       0.78548274
H       -2.42630724       0.56339234      -0.76993728
H       -0.03081957       0.15284542      -1.59973431
H       -0.95214680      -1.61473236      -1.03439626
H        0.30374509      -1.36295412       0.99587643
H        1.30955516      -1.51199382      -0.43509565
H        2.37822509       0.02225759       0.95852213
H        1.05354824       1.31846471       1.18901665
H        1.95402798       1.21164368      -0.56122348
14
Properties=species:S:1:pos:R:3 energy=-4305.117114564319 name=nbu_bent smiles=CCCC config_type=start_8 pbc="F F F"
C       -1.64608170       0.34760755      -0.03113177
C       -0.45957078      -0.53394310      -0.72106417
C        0.67503575      -0.75586418       0.17315169
C        1.62824185       0.52293567       0.48764584
H       -1.17713596       1.39947348       0.29324895
H       -1.85278766      -0.02047243       1.21313927
H       -2.49254397       0.41002781      -0.95921347
H        0.14810648      -0.35497351      -1.67516896
H       -0.86672556      -1.17903882      -0.87920364
H        0.38944698      -1.27020148       0.86855421
H        1.02769874      -1.49213730      -0.31251267
H        1.73778895      -0.11015522       0.87947637
H        1.10765195       1.80455553       2.05046567
H        2.63450383       1.19204375      -1.04443354
14
Properties=species:S:1:pos:R:3 energy=-4305.117114564319 name=nbu_bent smiles=CCCC config_type=start_9 pbc="F F F"
C       -1.60851001       0.35565925       0.00492278
C       -0.43484604      -0.42535076      -0.67770914
C        0.56699465      -0.80203615       0.12370173
C        1.63519330       0.49448786       0.47180576
H       -1.00446308       1.20902667       0.33407968
H       -1.62999338       0.01123765       0.87530696
H       -2.28140731       0.28185127      -0.27702819
H       -0.22469520      -0.02295568      -1.58565603
H       -1.28693956      -1.45685751      -1.00881739
H        0.37428816      -1.33363064       0.92475903
H        1.32821441      -1.49375597      -0.39263936
H        2.84629857       0.18569216       1.02729490
H        0.97958821       1.43116502       0.88726753
H        2.01797236       1.06703083      -0.51773661
14
Properties=species:S:1:pos:R:3 energy=-4305.117114564319 name=nbu_bent smiles=CCCC config_type=start_10 pbc="F F F"
C       -1.55209204       0.40337724      -0.01054910
C       -0.52633034      -0.48487325      -0.70980154
C        0.75881386      -0.81073762       0.13876281
C        1.54020568       0.45589853       0.52218248
H       -1.17092448       1.52468305       0.15570221
H       -2.18903367      -0.15683615       1.11288252
H       -2.52502871       0.54816205      -0.86016325
H       -0.24562917       0.08516567      -1.69625872
H       -0.84353073      -1.83356723      -1.11114945
H        0.54147102      -0.94470556       1.61303479
H        1.43150788      -1.07257807      -0.94346358
H        2.58628834       0.48826941       1.07634986
H        1.02370969       0.95396041       1.14125855
H        1.77347877       0.99166662      -0.43456931
14
Properties=species:S:1:pos:R:3 energy=-4305.117114564319 name=nbu_bent smiles=CCCC config_type=start_11 pbc="F F F"
C       -1.62217051       0.45052085       0.08850045
C       -0.44134233      -0.36781589      -0.71781633
C        0.76908284      -0.83792214       0.13159440
C        1.50555750       0.43261910       0.47694799
H       -1.35818325       1.22880490       0.20794368
H       -1.79315618      -0.00426299       1.14876430
H       -2.49682609       0.49711690      -0.89034817
H        0.05231817      -0.07563567      -1.62762524
H       -0.99926148      -1.67439086      -1.03623907
H        0.43259475      -1.47369492       0.95202137
H        1.52070751      -1.70612008      -0.68913002
H        2.29173615       0.04918513       0.93747131
H        0.93724126       1.24707730       1.44390486
H        1.90797061       1.13963637      -0.85367496
14
Properties=species:S:1:pos:R:3 energy=-4305.117114564319 name=nbu_bent smiles=CCCC config_type=start_12 pbc="F F F"
C       -1.49665560       0.44796478      -0.10715899
C       -0.59454817      -0.52097526      -0.72736109
C        0.84965534      -0.72906591       0.16794073
C        1.49418016       0.39931885       0.57371994
H       -1.04010896       1.48500521       0.18862858
H       -2.30548680      -0.18286897       1.18977831
H       -2.84092527       1.05398167      -0.93417763
H       -0.17723770      -0.28729714      -1.65730358
H       -0.52955347      -1.83011238      -1.02409087
H        0.47347053      -1.09186708       1.61037684
H        1.29405533      -1.25261090      -0.76119257
H        2.41161685       0.06973138       1.13748667
H        1.06697181       1.07293357       1.16422905
H        1.64737415       1.14679626      -0.46146268
14
Properties=species:S:1:pos:R:3 energy=-4305.117114564319 name=nbu_bent smiles=CCCC config_type=start_13 pbc="F F F"
C       -1.58783645       0.37784883       0.11569878
C       -0.54603395      -0.57470014      -0.72600746
C        0.69198216      -0.68582123       0.12854305
C        1.62141563       0.50488358       0.44856404
H       -1.16806989       1.10211542       0.20884274
H       -2.03589480      -0.29609450       0.89089375
H       -2.60329189       0.60189278      -0.66106978
H       -0.12248675      -0.09511393      -1.71844288
H       -1.02741697      -1.43674718      -0.92428037
H        0.54544399      -1.06921749       0.89682181
H        1.47699457      -1.35733966      -0.53901124
H        2.72256591       0.08260736       0.96356785
H        1.05083185       1.31099477       1.19089465
H        2.03307693       1.04217221      -0.56672148
14
Properties=species:S:1:pos:R:3 energy=-4305.117114564319 name=nbu_bent smiles=CCCC config_type=start_14 pbc="F F F"
C       -1.58642230       0.37757778       0.01861762
C       -0.48262238      -0.50978253      -0.67477343
C        0.74357997      -0.79576772       0.12233593
C        1.50254533       0.52096783       0.44956788
H       -1.07355605       1.36009915       0.33612673
H       -1.54754361       0.08020957       0.95551343
H       -2.43946793       0.37683099      -0.44576979
H       -0.25835011       0.00198806      -1.60725347
H       -1.30670476      -1.19505094      -1.00676486
H        0.47714789      -1.44325831       0.79271652
H        1.32090896      -1.75247222      -0.11590235
H        2.87540119       0.11700478       1.11781397
H        0.78130498       1.61447691       0.83829830
H        2.07214868       1.07293574      -0.51465529
14
Properties=species:S:1:pos:R:3 energy=-4305.117114564319 name=nbu_bent smiles=CCCC config_type=start_15 pbc="F F F"
C       -1.59023345       0.42991195       0.00060561
C       -0.51965121      -0.49971509      -0.71147678
C        0.69392085      -0.79384204       0.11296700
C        1.60102340       0.45581123       0.49665782
H       -1.00902839       1.42923259       0.13385478
H       -1.72241390       0.00880715       1.02163087
H       -2.42436357       0.56809968      -0.60248279
H       -0.20148185       0.20070344      -1.64428091
H       -0.98781767      -2.19210581      -0.96424592
H        0.48432512      -1.02564147       1.60198441
H        1.22545506      -1.19990766      -1.01818474
H        2.64018934       0.48300218       1.19050533
H        0.94212924       1.10479743       0.84628686
H        1.85908248       0.86801606      -0.01281395
14
Properties=species:S:1:pos:R:3 energy=-4305.117114564319 name=nbu_bent smiles=CCCC config_type=start_16 pbc="F F F"
C       -1.50849329       0.41456551       0.03163379
C       -0.52817988      -0.47984755      -0.72313089
C        0.73399475      -0.78872521       0.10910855
C        1.55188002       0.45933860       0.48223708
H       -1.14646530       1.51551331       0.21844149
H       -1.97508634      -0.04129575       1.20172018
H       -2.50188872       0.53450368      -0.60196112
H       -0.43127115       0.01929324      -1.73997411
H       -0.86015200      -1.40061641      -0.89745993
H        0.36568541      -1.28270991       1.19881793
H        1.46835145      -1.60920180      -0.27048408
H        2.41059203       0.23809284       1.07354421
H        1.04910253       0.91331290       1.00715247
H        1.66280195       1.19946291      -0.65037756
14
Properties=species:S:1:pos:R:3 energy=-4305.117114564319 name=nbu_bent smiles=CCCC config_type=start_17 pbc="F F F"
C       -1.60260203       0.41562988       0.05815764
C       -0.42402233      -0.37266294      -0.65769931
C        0.69884138      -0.85852782       0.11892961
C        1.55210754       0.41167491       0.38984396
H       -1.19347715       1.59193643       0.26645984
H       -1.61720793       0.21940920       1.09716314
H       -2.41103452       0.44387988      -0.50225262
H       -0.05193526       0.24841249      -1.54992856
H       -1.22735915      -0.98062443      -0.93665704
H        0.20983947      -1.78562003       0.45207827
H        1.73719198      -2.05221480       0.08199670
H        2.23219384       0.08096311       0.86689321
H        1.01843062       1.40307286       1.23036186
H        1.64152636       1.02542588      -0.57834379
14
Properties=species:S:1:pos:R:3 energy=-4305.117114564319 name=nbu_bent smiles=CCCC config_type=start_18 pbc="F F F"
C       -1.59360181       0.42140777       0.05981428
C       -0.42946589      -0.47119306      -0.67101091
C        0.63491692      -0.86299249       0.07000695
C        1.58030225       0.55952996       0.49108643
H       -1.28497086       1.40104879       0.28605202
H       -1.61779227      -0.01556553       1.00522332
H       -2.43669700       0.37082672      -0.93232314
H        0.31394325      -0.07751345      -1.50173685
H       -1.34501874      -1.96742194      -1.14201176
H        0.29765304      -1.36311284       1.15395967
H        1.35163695      -1.27887021      -0.84811582
H        2.67541323       0.43552355       1.16213388
H        1.00491400       1.14075532       0.80538520
H        1.76205430       0.94787238      -0.04551147
14
Properties=species:S:1:pos:R:3 energy=-4305.117114564319 name=nbu_bent smiles=CCCC config_type=start_19 pbc="F F F"
C       -1.63001112       0.44806342       0.05268502
C       -0.54433175      -0.50281354      -0.79225365
C        0.83574220      -0.77321235       0.15239562
C        1.52313501       0.44019183       0.54133360
H       -1.08683956       1.59741082       0.41630364
H       -1.90129037      -0.14246735       0.84246032
H       -2.49058569       0.44474249      -0.85408548
H       -0.10918332       0.07077525      -1.76804234
H       -0.61079330      -2.17599464      -0.98588407
H        0.42683521      -1.11060996       1.60270801
H        1.47699080      -1.14699039      -0.96932790
H        2.15542054      -0.08389811       1.06132337
H        0.96231060       1.31232365       1.46327966
H        1.98948778       1.24064615      -0.91746299
14
Properties=species:S:1:pos:R:3 energy=-4305.117114564319 name=nbu_bent smiles=CCCC config_type=start_20 pbc="F F F"
C       -1.55402215       0.35196278       0.00282625
C       -0.50420120      -0.36663721      -0.64207449
C        0.71513213      -0.78856799       0.13986361
C        1.56142294       0.43720512       0.47062448
H       -1.10502244       1.21937725       0.20864321
H       -1.87971107      -0.06333155       0.85280229
H       -2.48773491       0.74138322      -0.82777928
H       -0.04441222       0.11330816      -1.56780137
H       -1.14872026      -1.33003393      -0.95079528
H        0.42435392      -1.38251399       0.98573615
H        1.48249135      -1.59645955      -0.27745435
H        2.29223657      -0.33734939       0.82737154
H        1.00626013       1.23403212       1.23352946
H        1.86965377       1.14645750      -0.79586110
14
Properties=species:S:1:pos:R:3 energy=-4305.117114564319 name=nbu_bent smiles=CCCC config_type=start_21 pbc="F F F"
C       -1.52426688       0.37677862       0.04707739
C       -0.55891966      -0.47298795      -0.71002285
C        0.70897135      -0.68579729       0.14112276
C        1.55062748       0.42271343       0.41692142
H       -1.07036895       1.30549040       0.33086214
H       -2.36701604      -0.33770152       1.25480914
H       -2.60099825       0.83600920      -1.01268434
H        0.35095814      -0.11055823      -1.61065911
H       -1.13610678      -1.28757518      -0.89038730
H        0.48214018      -1.34208164       0.80694452
H        1.49562217      -1.50040628      -0.31711356
H        2.43716226      -0.13227982       0.92469580
H        1.07461171       1.36824272       1.64335229
H        2.24213740       0.86485322      -0.53400805
14
Properties=species:S:1:pos:R:3 energy=-4305.117114564319 name=nbu_bent smiles=CCCC config_type=start_22 pbc="F F F"
C       -1.55079570       0.38211940      -0.01626292
C       -0.50452354      -0.42675902      -0.64490390
C        0.71694913      -0.77019304       0.06741578
C        1.56221437       0.45239610       0.46276898
H       -1.20888536       1.30733207       0.12748961
H       -2.11181438      -0.04494733       1.24764891
H       -2.50122635       0.61055688      -0.61168409
H       -0.16147809       0.02048145      -1.64275163
H       -0.72165757      -1.28811665      -0.93476146
H        0.45238643      -1.36353266       1.09597670
H        1.29721002      -1.80147295      -0.06882190
H        2.55127160       0.31257358       1.03794272
H        1.05342400       0.90677028       1.12031235
H        1.69430177       1.04213105      -0.46431309
14
Properties=species:S:1:pos:R:3 energy=-4305.117114564319 name=nbu_bent smiles=CCCC config_type=start_23 pbc="F F F"
C       -1.46750627       0.42529149       0.01813720
C       -0.49592108      -0.38367533      -0.73012204
C        0.70909046      -0.84034737       0.16641759
C        1.44476617       0.45458022       0.44611288
H       -1.03755243       1.42412238       0.28524145
H       -2.11581661       0.06212705       1.35271768
H       -2.57291941       0.89693392      -0.88045932
H        0.45083283      -0.31470286      -1.66875411
H       -0.96270315      -1.32837442      -0.85298549
H        0.52181555      -1.51849736       0.64738727
H        1.46134004      -1.80449958      -0.15057383
H        2.03205607      -0.39023854       0.91543174
H        1.00567457       1.26783473       1.72916935
H        1.95850212       1.18863247      -0.84642294
14
Properties=species:S:1:pos:R:3 energy=-4305.117114564319 name=nbu_bent smiles=CCCC config_type=start_24 pbc="F F F"
C       -1.58465847       0.36759708      -0.03767778
C       -0.46667304      -0.49159391      -0.69338999
C        0.73050066      -0.80106679       0.19420239
C        1.48608358       0.57094806       0.45138308
H       -1.12255509       1.23574901       0.22376225
H       -1.67314986      -0.02029021       0.95447635
H       -2.36096784       0.61864294      -0.34698194
H       -0.33402886      -0.11116565      -1.73369375
H       -0.91795451      -1.71221280      -0.99777638
H        0.46092155      -1.34963198       1.11251746
H        1.80215221      -1.53500393      -0.65923887
H        2.37905699       0.29983180       1.02989478
H        0.96759340       1.13515778       1.18972897
H        1.84119038       1.04255527      -0.40824176
