14
Properties=species:S:1:pos:R:3 energy=-4305.138647313924 name=nbu_straight smiles=CCCC config_type=start_0 pbc="F F F"
C       -1.87298641      -0.20616249      -0.26473436
C       -0.60335989      -0.25639103       0.70592816
C        0.55884670       0.06917745      -0.10971685
C        1.94465494       0.11601584       0.90455910
H       -2.84898365      -0.37680918       0.28621584
H       -2.25144605       0.81734369      -0.30622955
H       -1.94798908      -0.84099410      -1.31376177
H       -0.23170108       0.40157354       1.65502911
H       -0.55972713      -1.63304661       1.06464444
H        0.89329091      -0.27285982      -0.45183605
H        0.21213565       1.40590893      -0.83780859
H        1.89705448       1.06647034       1.83174429
H        2.12235049      -0.91868442       1.31634268
H        2.81583270       0.25814606       0.39666818
14
Properties=species:S:1:pos:R:3 energy=-4305.138647313924 name=nbu_straight smiles=CCCC config_type=start_1 pbc="F F F"
C       -1.88917841      -0.14378919      -0.22417239
C       -0.58812441      -0.24133140       0.66466300
C        0.57637607       0.06214600      -0.03361391
C        1.93527344       0.06920865       0.85369472
H       -2.83535023      -0.22999423       0.45155743
H       -2.00511709       0.78618421      -0.37522032
H       -1.80367288      -0.88090821      -1.24671453
H       -0.47490372       0.40845237       1.47407702
H       -0.63332178      -1.15418480       1.20680526
H        0.79382295      -0.74170840      -0.93475781
H        0.50273074       1.06328754      -0.55474512
H        1.42712102       0.57046250       1.62198121
H        2.11916959      -0.71901370       1.81513399
H        2.92503430       0.52222424      -0.10978263
14
Properties=species:S:1:pos:R:3 energy=-4305.138647313924 name=nbu_straight smiles=CCCC config_type=start_2 pbc="F F F"
C       -1.87004147      -0.16112840      -0.31368171
C       -0.63298397      -0.27828000       0.72479846
C        0.70704850       0.02222132       0.01004387
C        1.81087523       0.17170813       0.79867133
H       -2.84935750      -0.42322754       0.26803031
H       -1.61608636       1.06825087      -0.72303582
H       -1.65133896      -1.38280450      -0.80818329
H       -0.77716511       0.48061693       1.61257125
H       -0.45666230      -1.23857077       1.27528484
H        0.81723004      -0.67924842      -0.80681924
H        0.57276084       0.97744266      -0.42867327
H        1.20722218       1.05565281       1.58577941
H        1.91655422      -0.66404822       1.61286452
H        3.08494216       0.33243835       0.24613008
14
Properties=species:S:1:pos:R:3 energy=-4305.138647313924 name=nbu_straight smiles=CCCC config_type=start_3 pbc="F F F"
C       -1.87678605      -0.12624647      -0.21208636
C       -0.71773537      -0.24234022       0.67337816
C        0.68235810       0.11136626       0.01351247
C        1.92797034       0.03604888       0.81854019
H       -2.63922026      -0.27565437       0.32749737
H       -1.79232686       0.93676349      -0.79408738
H       -1.84710247      -1.11154399      -1.06831857
H       -1.29361084       0.27616576       1.36004080
H       -0.43108140      -0.89672847       1.20132372
H        0.85357296      -0.49959498      -0.75093179
H        0.59118877       1.09108328      -0.39495578
H        1.57995130       0.43993652       1.60971331
H        2.14235984      -1.06049721       1.54459251
H        3.07351769       0.33677927      -0.07697603
14
Properties=species:S:1:pos:R:3 energy=-4305.138647313924 name=nbu_straight smiles=CCCC config_type=start_4 pbc="F F F"
C       -2.02603494      -0.23947800      -0.13498005
C       -0.62660455      -0.31639298       0.73036754
C        0.65966650       0.16669423      -0.19593482
C        1.97662328       0.11830958       0.88230918
H       -2.77032986      -0.28902032       0.39965373
H       -2.08380961       0.84361592      -0.46591384
H       -2.00242752      -0.90431342      -1.20945952
H       -0.42513892       0.36159969       1.63325097
H       -0.37773374      -1.31099874       1.10063216
H        0.84644548      -0.44910232      -0.87648512
H        0.52853837       1.08481477      -0.53226618
H        2.35990188       1.21716630       1.82256116
H        1.89683284      -0.90891775       0.58902624
H        2.64702283       0.18380317       0.63585631
14
Properties=species:S:1:pos:R:3 energy=-4305.138647313924 name=nbu_straight smiles=CCCC config_type=start_5 pbc="F F F"
C       -1.93131719      -0.25194445      -0.15234123
C       -0.65306632      -0.24050389       0.70618657
C        0.61050800       0.12748832      -0.08923563
C        1.97819504       0.06768779       0.81600031
H       -2.88274617      -0.29857396       0.36792170
H       -1.79812391       1.00079127      -0.56724448
H       -1.86087039      -0.92990589      -1.03250275
H       -0.79996064       0.62341680       1.61200432
H       -0.60943149      -1.27602053       1.11548068
H        0.85171244      -0.43482787      -0.95358191
H        0.53611488       1.17817871      -0.57650257
H        2.06924165       0.96755919       1.66914814
H        2.10315883      -0.93611953       1.08877373
H        2.76456656       0.24909026       0.38659690
14
Properties=species:S:1:pos:R:3 energy=-4305.138647313924 name=nbu_straight smiles=CCCC config_type=start_6 pbc="F F F"
C       -1.92014391      -0.16108753      -0.23185310
C       -0.55606023      -0.26724687       0.69807144
C        0.66784992       0.06430081      -0.07456005
C        1.85697778       0.09750057       0.87086364
H       -2.76251539      -0.42965186       0.38931107
H       -2.37483580       0.80399307      -0.01988900
H       -2.02577702      -0.60207476      -1.80223343
H       -0.18926800       0.23105126       1.54862836
H       -0.56991431      -1.13877005       1.10081571
H        0.70850345      -0.66888970      -0.80943290
H        0.54742228       1.18049100      -0.63429513
H        1.36059881       0.68395587       1.63196755
H        2.01778999      -0.69660232       1.75692794
H        3.13252641       0.41319266       0.16343590
14
Properties=species:S:1:pos:R:3 energy=-4305.138647313924 name=nbu_straight smiles=CCCC config_type=start_7 pbc="F F F"
C       -1.97749972      -0.14658889      -0.28692242
C       -0.60789425      -0.28951561       0.78777189
C        0.64627739       0.05927101      -0.13027909
C        1.90761242       0.11922868       0.86036339
H       -2.79323640      -0.41674661       0.37200475
H       -1.85383105       1.00255593      -0.40936864
H       -1.73836258      -1.18584313      -0.87088499
H       -0.63655234       0.18005217       1.66859277
H       -0.40211607      -1.16034893       1.14753526
H        0.70315621      -0.76739548      -0.89105471
H        0.85859633       1.06067167      -0.70914338
H        2.42777300       1.95190915       1.90178345
H        1.88004240      -1.15800396       0.45208447
H        2.35473205       0.16369060       1.04145444
14
Properties=species:S:1:pos:R:3 energy=-4305.138647313924 name=nbu_straight smiles=CCCC config_type=start_8 pbc="F F F"
C       -1.87061087      -0.10131350      -0.14822473
C       -0.68983845      -0.06961104       0.73977008
C        0.76924286       0.05135333      -0.00088304
C        1.81269141      -0.07471667       0.70322155
H       -2.59430182      -0.41195567       0.48832173
H       -1.83125646       1.03117164      -1.18948502
H       -1.78233573      -1.04117017      -0.48066186
H       -1.21014062       1.09635412       1.61415203
H       -0.40178241      -0.75753723       1.29544429
H        0.64651445      -0.98535287      -1.32870551
H        0.86434503       0.61519288      -0.04930899
H        1.71073591       0.48431463       1.49383200
H        2.07004121      -1.40127144       1.23769856
H        2.69815433       0.28555580      -0.12944782
14
Properties=species:S:1:pos:R:3 energy=-4305.138647313924 name=nbu_straight smiles=CCCC config_type=start_9 pbc="F F F"
C       -1.89362021      -0.16420955      -0.24952448
C       -0.60337789      -0.25007015       0.71376895
C        0.63769740       0.06672642      -0.05150535
C        1.87734281       0.16159313       0.83314897
H       -2.77462409      -0.35317978       0.32800769
H       -1.98066020       0.85586764      -0.34611869
H       -1.81530343      -0.96642594      -1.20865186
H       -0.59226699       0.22090201       1.57417233
H       -0.75694827      -1.47532420       1.07053198
H        0.84016939      -0.60917402      -0.82742401
H        0.71467686       0.99698434      -0.64242638
H        1.83825400       1.12335835       1.78723844
H        2.07014387      -1.24971115       1.25941764
H        2.66628026       0.27381352       0.52917613
14
Properties=species:S:1:pos:R:3 energy=-4305.138647313924 name=nbu_straight smiles=CCCC config_type=start_10 pbc="F F F"
C       -1.91010738      -0.12447597      -0.16239113
C       -0.60232701      -0.17242617       0.72788364
C        0.67790491       0.04503224      -0.11134670
C        1.89206419       0.01617295       0.83051557
H       -2.87621489      -0.38634807       0.42180411
H       -2.10182751       0.81581806      -0.60768883
H       -1.85534302      -0.86061222      -1.30455930
H       -0.52030985       0.53121745       1.60482696
H       -0.67639119      -0.99935284       1.20898515
H        0.70328254      -0.76254638      -0.85442340
H        0.54038067       0.95310632      -0.43008783
H        1.67831124       0.71537312       1.63459051
H        2.09541592      -0.92591653       1.32407773
H        2.75185809       0.32848152       0.06412883
14
Properties=species:S:1:pos:R:3 energy=-4305.138647313924 name=nbu_straight smiles=CCCC config_type=start_11 pbc="F F F"
C       -1.87768980      -0.16548299      -0.19292218
C       -0.70633656      -0.23680211       0.67976238
C        0.68583445       0.13580626      -0.09224160
C        1.88935374       0.09249963       0.85330023
H       -2.67941864      -0.67130029       0.31945461
H       -2.11835866       0.81618604      -0.32791157
H       -1.82445894      -1.05277350      -1.23844601
H       -0.62543102       0.28276694       1.43934071
H       -0.09594884      -1.38250631       1.09656572
H        0.70021950      -0.49555474      -0.58679824
H        0.43680014       1.25770397      -0.52796305
H        1.78398494       0.65866139       1.63734821
H        2.03008351      -0.99060523       1.39124130
H        2.92262103       0.25212961       0.29678022
14
Properties=species:S:1:pos:R:3 energy=-4305.138647313924 name=nbu_straight smiles=CCCC config_type=start_12 pbc="F F F"
C       -1.84000792      -0.15082918      -0.09366385
C       -0.60004679      -0.14489735       0.72004083
C        0.64243194       0.00395244      -0.13174663
C        1.84665474       0.09019708       0.77819125
H       -2.92309515      -0.14027964       0.53927539
H       -1.72703676       0.96427048      -0.62607002
H       -1.69622862      -1.05092142      -0.86247826
H       -0.81332401       0.70163427       1.54776906
H       -0.65390842      -1.15442812       1.12154030
H        0.52231262      -0.90870116      -0.99273256
H        0.79648137       0.76914425      -0.46702037
H        2.09788144       0.98665339       1.61175000
H        1.91916447      -1.30073941       0.72978250
H        2.31871306       0.13608711       0.60146971
14
Properties=species:S:1:pos:R:3 energy=-4305.138647313924 name=nbu_straight smiles=CCCC config_type=start_13 pbc="F F F"
C       -1.87410138      -0.10530687      -0.17995145
C       -0.65892463      -0.22444814       0.75585023
C        0.64436479       0.07847234      -0.07933524
C        1.90137115       0.00615950       0.76150266
H       -2.69480952      -0.31093712       0.39027217
H       -2.26131806       0.77502976      -0.40588632
H       -1.89150038      -0.89931129      -1.10185184
H       -0.36308897       0.42166458       1.72243184
H       -0.53543253      -0.12446966       1.28415688
H        0.71472224      -0.95424196      -1.67454806
H        0.87895172       0.55326295       0.13596465
H        1.73975071       0.81287266       1.54547057
H        1.99532530      -0.94691314       1.18188034
H        2.69038696       0.19240360       0.30147323
14
Properties=species:S:1:pos:R:3 energy=-4305.138647313924 name=nbu_straight smiles=CCCC config_type=start_14 pbc="F F F"
C       -1.93547585      -0.26025830      -0.17770013
C       -0.60720254      -0.20011383       0.68521939
C        0.65408201       0.13718410      -0.06509123
C        1.89967722       0.10969251       0.84797743
H       -2.83659990      -0.46259222       0.38187061
H       -2.12847780       0.67216224      -0.74748416
H       -1.86942174      -0.80894801      -1.15382167
H       -0.59264084       0.46795373       1.50258692
H       -0.28922651      -1.46270958       1.21404273
H        0.79455544      -0.49497266      -0.54817747
H        0.51718261       1.21321146      -0.74809691
H        1.34927612       0.51170982       1.50919661
H        2.15744968      -0.80828823       1.64791753
H        3.19085997       0.31833292      -0.06545271
14
Properties=species:S:1:pos:R:3 energy=-4305.138647313924 name=nbu_straight smiles=CCCC config_type=start_15 pbc="F F F"
C       -1.87165200      -0.13610619      -0.15535403
C       -0.62483444      -0.17439447       0.71995442
C        0.63564915       0.02926559      -0.08740820
C        1.90618841       0.03175827       0.81314155
H       -2.89181475      -0.14863923       0.44829386
H       -2.03425653       0.90366950      -0.53454284
H       -1.80995398      -0.79526124      -1.18202852
H       -0.50562433       0.51122629       1.64229660
H       -0.79592575      -1.13684778       1.01346830
H        0.69003873      -0.67625797      -1.13349110
H        0.65400556       1.08879284      -0.52375179
H        2.11672003       0.79148843       1.66950957
H        1.96926449      -1.13736282       1.02847579
H        2.49182721       0.17258170       0.56623196
14
Properties=species:S:1:pos:R:3 energy=-4305.138647313924 name=nbu_straight smiles=CCCC config_type=start_16 pbc="F F F"
C       -1.89451550      -0.15781365      -0.24440761
C       -0.61652097      -0.21075221       0.68930228
C        0.58375557       0.12531456      -0.06180387
C        1.95132326       0.07788275       0.85394103
H       -2.74674420      -0.61612680       0.28650920
H       -1.90537321       0.88587068      -0.57697896
H       -1.80160834      -1.00616916      -1.15698948
H       -0.77834961       0.33813131       1.45971441
H       -0.25898002      -1.65657083       1.26626474
H        0.50095766      -0.56665693      -0.46397104
H        0.51038479       1.21681078      -0.78816215
H        1.60765728       0.50834794       1.58934372
H        2.07946125      -0.79521199       1.71937286
H        2.93124389       0.26423957       0.29361639
14
Properties=species:S:1:pos:R:3 energy=-4305.138647313924 name=nbu_straight smiles=CCCC config_type=start_17 pbc="F F F"
C       -1.94639643      -0.27586756      -0.15551659
C       -0.61279554      -0.29466274       0.69696834
C        0.53571432       0.19144755      -0.12370991
C        2.02172808       0.13568596       0.83432414
H       -2.88904689      -0.55881874       0.42896012
H       -2.07166018       0.81678763      -0.47364815
H       -1.72390752      -1.06504123      -0.96241835
H       -0.67170232       0.34855970       1.53483325
H       -0.68633264      -1.33815331       1.11258982
H        0.69728341      -0.50023544      -0.91910673
H        0.47217445       1.26954100      -0.59480388
H        2.35684331       0.99927804       1.75652622
H        2.09372705      -0.75503852       1.09811622
H        2.86837257       0.28470910       0.46925499
14
Properties=species:S:1:pos:R:3 energy=-4305.138647313924 name=nbu_straight smiles=CCCC config_type=start_18 pbc="F F F"
C       -1.85123524      -0.20012494      -0.12282302
C       -0.72765701      -0.17195103       0.65735242
C        0.71450372       0.14503707      -0.07255871
C        1.89273099      -0.03893820       0.81508346
H       -2.72504773      -0.51291718       0.43390517
H       -2.30942905       0.80367581      -0.46941464
H       -1.98051066      -0.55851892      -1.33980806
H       -0.48235174       0.67631181       1.52252888
H       -0.56474286      -1.48052062       1.15055367
H        0.91602062      -0.33501250      -0.50361211
H        0.59910801       1.26184169      -0.77096796
H        1.61640571       0.70333257       1.66121232
H        2.15671484      -1.04335689       1.44189566
H        2.86070528       0.25626923       0.02563149
14
Properties=species:S:1:pos:R:3 energy=-4305.138647313924 name=nbu_straight smiles=CCCC config_type=start_19 pbc="F F F"
C       -1.90048949      -0.23407594      -0.10677353
C       -0.62119915      -0.13143092       0.68732157
C        0.62914530       0.07133733      -0.06763165
C        1.96155440       0.03471462       0.81052665
H       -2.82346859      -0.59757506       0.43837237
H       -2.00142959       0.84256905      -0.84415177
H       -1.71552957      -0.91644002      -0.75527461
H       -1.01645172       0.60447243       1.55432466
H       -0.70039777      -1.18458904       1.15808621
H        0.72221911      -0.43479868      -0.98189561
H        0.33829443       1.31831771      -0.57759518
H        1.91314949       0.64815983       1.59155174
H        2.12331117      -0.96097946       1.00855672
H        2.76342865       0.37398908       0.00742282
14
Properties=species:S:1:pos:R:3 energy=-4305.138647313924 name=nbu_straight smiles=CCCC config_type=start_20 pbc="F F F"
C       -1.83633168      -0.20622025      -0.17639532
C       -0.66426943      -0.32667778       0.66064825
C        0.64732368       0.15187541      -0.08613826
C        1.88212898       0.09808458       0.86172076
H       -2.76909352      -0.47307835       0.47277679
H       -2.26660181       0.61278173      -0.31519465
H       -1.88442012      -0.50597332      -1.22954124
H       -0.57738335       0.20006722       1.48781811
H       -0.43536316      -1.22162132       1.21528986
H        0.64979858      -0.47034610      -0.79680343
H        0.50893915       1.26604123      -0.63540419
H        1.95166121       1.01792296       1.70387451
H        2.05314035      -0.83822269       1.27199667
H        2.84994198       0.38498022       0.18277198
14
Properties=species:S:1:pos:R:3 energy=-4305.138647313924 name=nbu_straight smiles=CCCC config_type=start_21 pbc="F F F"
C       -1.86630745      -0.07950857      -0.20094744
C       -0.63824380      -0.13160007       0.63664780
C        0.78025703      -0.00634111       0.02138763
C        1.76218995      -0.00838371       0.80669570
H       -2.60481115      -0.06744296       0.46957910
H       -2.18127934       0.93709491      -0.55014366
H       -1.77448703      -0.84581609      -1.02127640
H       -0.64464751       0.48415451       1.48853460
H       -0.35378897      -1.20655349       1.21535608
H        0.77883095      -0.81170656      -0.90999583
H        0.89123425       0.99503997      -0.49063476
H        1.03461009       0.52379961       1.52419759
H        2.00163373      -0.99771583       1.71925937
H        2.82616598       0.28111865      -0.13487852
14
Properties=species:S:1:pos:R:3 energy=-4305.138647313924 name=nbu_straight smiles=CCCC config_type=start_22 pbc="F F F"
C       -1.95058028      -0.20159069      -0.17622386
C       -0.56479556      -0.31654756       0.72565513
C        0.61362666       0.09504288      -0.11865612
C        1.95171909       0.15138074       0.83583144
H       -2.92642382      -0.31456594       0.40449242
H       -2.03571729       0.60497146      -0.78627717
H       -1.67346661      -1.01538529      -0.99410593
H       -0.79058825       0.54870895       1.60101709
H       -0.76228876      -1.36632374       1.12927618
H        0.72321360      -0.52304547      -0.72952190
H        0.28104971       1.26425217      -0.68916884
H        2.11393900       1.13087513       1.72309244
H        2.09981539      -0.72530198       1.03417991
H        2.80012824       0.23517194       0.58399590
14
Properties=species:S:1:pos:R:3 energy=-4305.138647313924 name=nbu_straight smiles=CCCC config_type=start_23 pbc="F F F"
C       -1.92784617      -0.22723327      -0.26423513
C       -0.63805636      -0.28188447       0.65593430
C        0.61824754       0.16503901       0.00419116
C        1.96522339       0.09413187       0.88807731
H       -3.10674856      -0.58257940       0.31800058
H       -2.00795337       0.98546336      -0.46474991
H       -1.85609549      -1.26329089      -1.08106447
H       -0.39029860       0.22098974       1.53778818
H       -0.49509038      -0.93873101       1.20313875
H        0.72677877      -0.53550167      -1.15093005
H        0.58519000       1.07976787      -0.28245264
H        1.29617734       0.21870018       1.48717138
H        1.99580299      -0.18399895       2.08807435
H        3.46793613       0.57817446      -0.58576437
14
Properties=species:S:1:pos:R:3 energy=-4305.138647313924 name=nbu_straight smiles=CCCC config_type=start_24 pbc="F F F"
C       -1.89536304      -0.22892001      -0.19952882
C       -0.64084757      -0.30790627       0.64615626
C        0.57924502       0.16414053       0.00477918
C        1.98000146       0.08488706       0.78567719
H       -2.74755265      -0.20967216       0.41709677
H       -1.63131663       0.87010291      -1.02482406
H       -1.66339724      -1.14329662      -0.53354494
H       -1.44732142       0.65991675       1.39214445
H       -0.46786404      -1.32117725       1.29345805
H        0.74920773      -0.46825116      -0.76222694
H        0.47300211       1.17265384      -0.31547961
H        1.44766217       0.58203931       1.61647831
H        2.14361120      -0.50453511       1.58800951
H        3.29566975       0.39344351      -0.04309578
