14
Properties=species:S:1:pos:R:3 energy=-4305.117114564319 name=nbu_bent smiles=CCCC config_type=start_0 pbc="F F F"
C       -1.54949196       0.39660742      -0.01971226
C       -0.54623408      -0.48082266      -0.67872597
C        0.75014423      -0.76985343       0.13223774
C        1.55969302       0.47023210       0.47434493
H       -1.19247903       1.38395647       0.18647173
H       -1.87578497      -0.04229331       1.00560670
H       -2.47691568       0.56003106      -0.55993693
H       -0.19269701      -0.05362047      -1.64552491
H       -0.91481844      -1.47512282      -0.94695757
H        0.49569642      -1.27024251       1.10753004
H        1.32953399      -1.51534470      -0.37821523
H        2.48558275       0.23876008       1.01891599
H        0.98649814       1.12391256       1.04643750
H        1.81517339       1.00736400      -0.39374585
14
Properties=species:S:1:pos:R:3 energy=-4305.117114564319 name=nbu_bent smiles=CCCC config_type=start_1 pbc="F F F"
C       -1.56635515       0.38215990       0.01772138
C       -0.53738275      -0.51277840      -0.69299916
C        0.73354215      -0.75854098       0.12831456
C        1.58229220       0.49568120       0.45829673
H       -1.17450013       1.39818069       0.21238376
H       -1.90359905      -0.09125893       1.07080347
H       -2.49861565       0.54744870      -0.67371901
H       -0.11731088      -0.04371365      -1.63326204
H       -0.99120237      -1.40324251      -0.92640375
H        0.46709679      -1.25116015       1.00775270
H        1.32339725      -1.47971811      -0.38004328
H        2.41722645       0.24851663       1.01100926
H        1.04335569       1.13822726       1.16236866
H        1.91783465       1.00883658      -0.44835161
14
Properties=species:S:1:pos:R:3 energy=-4305.117114564319 name=nbu_bent smiles=CCCC config_type=start_2 pbc="F F F"
C       -1.57048792       0.37182958       0.01568799
C       -0.52332385      -0.50102785      -0.69423122
C        0.73612795      -0.76250587       0.13578203
C        1.57825000       0.49914481       0.46505740
H       -1.17140896       1.34744744       0.22571047
H       -1.98016998      -0.10704509       1.01359859
H       -2.48145079       0.56936813      -0.64201865
H       -0.14736287      -0.11219897      -1.67589156
H       -1.00051753      -1.48787294      -0.98537417
H        0.52995742      -1.23442674       1.09528364
H        1.29775480      -1.38130843      -0.48878174
H        2.43670045       0.24420893       1.00727259
H        1.02099127       1.21674470       1.14352699
H        1.87828029       1.00652191      -0.42148312
14
Properties=species:S:1:pos:R:3 energy=-4305.117114564319 name=nbu_bent smiles=CCCC config_type=start_3 pbc="F F F"
C       -1.58976703       0.35894072       0.00290680
C       -0.53233574      -0.50801860      -0.70127395
C        0.71469608      -0.73544024       0.13238891
C        1.60669745       0.48595223       0.47748210
H       -1.17480645       1.42816596       0.24542066
H       -1.87926744      -0.11032040       0.94687015
H       -2.45356506       0.45655128      -0.53044860
H       -0.26540432      -0.03907105      -1.67833748
H       -0.95605370      -1.46740610      -0.95531182
H        0.46759664      -1.15984549       1.14796834
H        1.24530536      -1.40600234      -0.46036348
H        2.57165693       0.13927852       0.99258009
H        1.04640488       1.28940969       1.15260817
H        2.03465691       1.00239640      -0.46061056
14
Properties=species:S:1:pos:R:3 energy=-4305.117114564319 name=nbu_bent smiles=CCCC config_type=start_4 pbc="F F F"
C       -1.56254867       0.37247365       0.03554739
C       -0.56098822      -0.46895957      -0.68382774
C        0.75583121      -0.73812976       0.11789523
C        1.58392608       0.43560262       0.46226227
H       -1.11553494       1.41196421       0.27117450
H       -2.04364181      -0.10008618       1.07586191
H       -2.54229877       0.61671853      -0.76572776
H       -0.06669982       0.03083756      -1.61448057
H       -0.97295552      -1.27056212      -0.94967760
H        0.45705266      -1.30349916       0.96890218
H        1.33312401      -1.50668868      -0.35704788
H        2.49993204       0.10550005       0.98644202
H        1.03661532       1.18480465       1.05770849
H        1.84879421       0.96881807      -0.51536257
14
Properties=species:S:1:pos:R:3 energy=-4305.117114564319 name=nbu_bent smiles=CCCC config_type=start_5 pbc="F F F"
C       -1.55889801       0.40932560       0.01897664
C       -0.52587721      -0.45761808      -0.70228082
C        0.72015963      -0.78251072       0.12607649
C        1.57375265       0.44850627       0.46613840
H       -1.11142996       1.44024277       0.23688693
H       -1.86298506      -0.01882902       0.96674492
H       -2.44844815       0.47794737      -0.54673241
H       -0.22912287       0.01963875      -1.65473163
H       -0.97425492      -1.43946470      -0.93855395
H        0.48086821      -1.29321551       1.10913855
H        1.29163071      -1.53269122      -0.32046672
H        2.45603838       0.05174721       0.96005358
H        0.97963026       1.22471234       1.13540221
H        1.93725581       1.00896038      -0.51645936
14
Properties=species:S:1:pos:R:3 energy=-4305.117114564319 name=nbu_bent smiles=CCCC config_type=start_6 pbc="F F F"
C       -1.54636094       0.38678433      -0.00346009
C       -0.58625952      -0.47825157      -0.66776911
C        0.79605105      -0.73909081       0.14193053
C        1.56111479       0.44718748       0.43529651
H       -1.19531656       1.39901965       0.22394036
H       -1.88239143      -0.04384486       1.01763088
H       -2.49647452       0.51300313      -0.48227805
H       -0.38923776      -0.06603639      -1.66017425
H       -1.02644511      -1.10410823      -0.89520764
H        0.52881044      -1.34373213       0.83060223
H        1.44673509      -1.65779900      -0.10032030
H        2.60166223       0.22078406       0.96698516
H        1.01109388       1.08557912       0.95850253
H        1.73710816       0.94818873      -0.39323794
14
Properties=species:S:1:pos:R:3 energy=-4305.117114564319 name=nbu_bent smiles=CCCC config_type=start_7 pbc="F F F"
C       -1.56942292       0.38818188       0.05854004
C       -0.52616809      -0.45360939      -0.69923288
C        0.73628580      -0.77332394       0.12981049
C        1.57853176       0.45533261       0.46178204
H       -1.20743486       1.35020516       0.28282706
H       -1.76396833      -0.00755089       0.82972286
H       -2.43664214       0.45367301      -0.50664641
H       -0.37399882       0.12441607      -1.65055297
H       -1.05673140      -1.63138075      -1.00716140
H        0.43554154      -1.27662511       1.12969291
H        1.41041341      -1.42376344      -0.59536396
H        2.66539179       0.20928298       1.02450856
H        0.95911824       1.11690810       0.90164248
H        1.76745492       1.03770476      -0.47768890
14
Properties=species:S:1:pos:R:3 energy=-4305.117114564319 name=nbu_bent smiles=CCCC config_type=start_8 pbc="F F F"
C       -1.58018626       0.39249485       0.05390086
C       -0.50605604      -0.48348089      -0.68918166
C        0.71793584      -0.78580403       0.12547757
C        1.58889514       0.48387816       0.44765071
H       -1.26266421       1.42155322       0.28383557
H       -1.71051281      -0.01403933       0.89494005
H       -2.41710586       0.38534026      -0.51667317
H       -0.36221483       0.06581518      -1.66355193
H       -1.07653084      -1.34418533      -0.95362852
H        0.45363800      -1.33083754       0.88022824
H        1.32402193      -1.57529293      -0.30023924
H        2.54533006       0.17187291       0.94754165
H        1.03468199       1.22524607       1.04467123
H        1.85426075       1.05984114      -0.53052322
14
Properties=species:S:1:pos:R:3 energy=-4305.117114564319 name=nbu_bent smiles=CCCC config_type=start_9 pbc="F F F"
C       -1.57139924       0.40326854       0.01115091
C       -0.52721872      -0.50531781      -0.69590059
C        0.77457439      -0.78539648       0.13530071
C        1.53409785       0.49646862       0.46577330
H       -1.17604077       1.43945861       0.24688877
H       -1.70045993      -0.01378001       0.83927626
H       -2.41415072       0.43615578      -0.46760421
H       -0.43396894       0.13418958      -1.65365784
H       -0.95253628      -1.64495948      -1.01143595
H        0.40113253      -1.27682932       1.26716353
H        1.38646382      -1.47620211      -0.53054698
H        2.65086516       0.29859165       1.04557057
H        0.97870077       1.09626578       1.02561452
H        1.76851389       1.05014234      -0.41826672
14
Properties=species:S:1:pos:R:3 energy=-4305.117114564319 name=nbu_bent smiles=CCCC config_type=start_10 pbc="F F F"
C       -1.55537190       0.39873060       0.00371985
C       -0.54196648      -0.52639625      -0.68997832
C        0.73154322      -0.74471003       0.12806897
C        1.58165579       0.48047765       0.46659149
H       -1.22223484       1.41448073       0.22541084
H       -1.87241726      -0.06609538       1.03230175
H       -2.48518087       0.51615070      -0.55456402
H       -0.29772953      -0.07919263      -1.63949966
H       -0.97150954      -1.40399161      -0.94547981
H        0.43454428      -1.27826059       1.01202797
H        1.39286073      -1.52596116      -0.37407000
H        2.63733725       0.34812355       1.03129848
H        1.01622893       1.14791735       0.99457709
H        1.80705903       0.98012041      -0.34435728
14
Properties=species:S:1:pos:R:3 energy=-4305.117114564319 name=nbu_bent smiles=CCCC config_type=start_11 pbc="F F F"
C       -1.54656226       0.38140570       0.02476618
C       -0.51846013      -0.51897577      -0.67485352
C        0.72703948      -0.76581344       0.10483291
C        1.55570396       0.50891720       0.46296425
H       -1.14617841       1.36141878       0.25550154
H       -2.07710513      -0.20765093       1.14757961
H       -2.55200477       0.69398666      -0.75417190
H       -0.01435132      -0.08472135      -1.59771839
H       -1.01166283      -1.39551202      -0.97374412
H        0.50633503      -1.25559256       0.94481219
H        1.37558202      -1.50463923      -0.40128198
H        2.62473187       0.38919948       1.05398658
H        0.98470763       1.12191616       0.93624827
H        1.72627188       0.96524014      -0.28437156
14
Properties=species:S:1:pos:R:3 energy=-4305.117114564319 name=nbu_bent smiles=CCCC config_type=start_12 pbc="F F F"
C       -1.57373659       0.40406585      -0.00480889
C       -0.50581459      -0.48294508      -0.69710976
C        0.72908077      -0.78968726       0.14490330
C        1.56910928       0.48197616       0.47054305
H       -1.16688686       1.38194814       0.25973988
H       -1.84912844      -0.05635900       0.98663096
H       -2.44479105       0.58631547      -0.58117866
H       -0.24573519      -0.01989021      -1.67316364
H       -1.00141169      -1.51672264      -0.96084974
H        0.47767215      -1.24201225       1.11194420
H        1.35454218      -1.49762715      -0.42709130
H        2.36311443       0.15718220       1.00033995
H        0.99901409       1.16230158       1.19279768
H        1.91952678       1.03520165      -0.53294050
14
Properties=species:S:1:pos:R:3 energy=-4305.117114564319 name=nbu_bent smiles=CCCC config_type=start_13 pbc="F F F"
C       -1.57184975       0.38576086      -0.02462372
C       -0.54526030      -0.51426687      -0.68406917
C        0.77231425      -0.74759588       0.13970660
C        1.56655811       0.49129564       0.47501389
H       -1.15095857       1.41112700       0.21506757
H       -1.87633081      -0.07345297       1.00843522
H       -2.50416154       0.49709280      -0.56380162
H       -0.33622780      -0.10644941      -1.66245725
H       -0.90787939      -1.42801609      -0.93289449
H        0.44836172      -1.26014034       1.10064070
H        1.36920665      -1.50560444      -0.36798479
H        2.52687236       0.29256913       0.99129053
H        0.99623896       1.14328682       1.07696878
H        1.80356507       0.99851282      -0.39942041
14
Properties=species:S:1:pos:R:3 energy=-4305.117114564319 name=nbu_bent smiles=CCCC config_type=start_14 pbc="F F F"
C       -1.56409810       0.37940894       0.00657938
C       -0.51531906      -0.50194563      -0.69681673
C        0.71735623      -0.78149043       0.13946119
C        1.57942975       0.49744341       0.46934850
H       -1.25910721       1.39487832       0.20946824
H       -1.84950720      -0.00622326       1.07380890
H       -2.44546877       0.53744813      -0.56149447
H       -0.24381830      -0.12314902      -1.67244086
H       -1.03315460      -1.38674602      -0.94978480
H        0.52687063      -1.25725336       0.98677291
H        1.32043582      -1.47269404      -0.44996646
H        2.55150785       0.27893219       1.00070354
H        1.03885259       1.20015137       1.13211029
H        1.81437775       1.06302935      -0.45286917
14
Properties=species:S:1:pos:R:3 energy=-4305.117114564319 name=nbu_bent smiles=CCCC config_type=start_15 pbc="F F F"
C       -1.57739797       0.39173918      -0.01145043
C       -0.52337049      -0.51640666      -0.70315793
C        0.74934879      -0.76193890       0.14697187
C        1.57994874       0.50137704       0.48686704
H       -1.29773134       1.41794961       0.17610439
H       -1.86611423      -0.09469544       0.95907175
H       -2.43459330       0.50192561      -0.57132934
H       -0.30284426      -0.04421990      -1.66182843
H       -1.01391535      -1.63904410      -0.98664642
H        0.47965907      -1.18711010       1.21285230
H        1.36610374      -1.38072170      -0.56706600
H        2.45796158       0.20440329       1.02537124
H        1.03238011       1.18420739       1.12750211
H        1.86721080       1.01177304      -0.40574604
14
Properties=species:S:1:pos:R:3 energy=-4305.117114564319 name=nbu_bent smiles=CCCC config_type=start_16 pbc="F F F"
C       -1.56466110       0.38791836       0.01048948
C       -0.52786166      -0.49215106      -0.68896736
C        0.74435368      -0.77478532       0.15370848
C        1.56730629       0.48079331       0.45601911
H       -1.15713155       1.41743265       0.23622482
H       -1.80740901      -0.08809875       0.86676091
H       -2.44546308       0.45347814      -0.65016850
H       -0.28594520       0.10048190      -1.66354975
H       -0.96817981      -1.52868364      -0.95937387
H        0.45211166      -1.23552855       1.13796089
H        1.34979286      -1.45703225      -0.48663244
H        2.32938863       0.12932654       0.96979164
H        1.00610222       1.27289189       1.23400193
H        1.92684628       1.06485551      -0.52004468
14
Properties=species:S:1:pos:R:3 energy=-4305.117114564319 name=nbu_bent smiles=CCCC config_type=start_17 pbc="F F F"
C       -1.56998624       0.36915620       0.00454797
C       -0.53691055      -0.47264273      -0.68196041
C        0.75066640      -0.76362942       0.12279611
C        1.57003406       0.46768958       0.47274104
H       -1.16681404       1.42304969       0.25019363
H       -1.85830264      -0.04515616       0.91898914
H       -2.50136213       0.56480616      -0.63626935
H       -0.25566171       0.03002558      -1.64781097
H       -0.97903030      -1.64705141      -0.98732433
H        0.46491058      -1.18531796       1.26786503
H        1.34934419      -1.36651589      -0.55820643
H        2.59881700       0.26587112       1.04122565
H        1.02291476       1.13923546       1.03524601
H        1.78869947       0.96470353      -0.36236015
14
Properties=species:S:1:pos:R:3 energy=-4305.117114564319 name=nbu_bent smiles=CCCC config_type=start_18 pbc="F F F"
C       -1.56996187       0.37516536       0.01791771
C       -0.53427738      -0.48539695      -0.69610801
C        0.73926162      -0.75143278       0.12529073
C        1.57427244       0.47757325       0.47449076
H       -1.15853602       1.35553403       0.23884627
H       -1.92989567      -0.08368115       1.02328885
H       -2.52541790       0.53460176      -0.72775544
H       -0.13614440      -0.08963364      -1.64730011
H       -1.02794871      -1.51861589      -0.96999161
H        0.47680376      -1.20612353       1.17399784
H        1.32790740      -1.41172029      -0.49194897
H        2.50678278       0.17365318       0.98259790
H        1.02193133       1.22753146       1.15732025
H        1.96158850       0.97905081      -0.45886883
14
Properties=species:S:1:pos:R:3 energy=-4305.117114564319 name=nbu_bent smiles=CCCC config_type=start_19 pbc="F F F"
C       -1.55236847       0.40306406       0.02675111
C       -0.52648186      -0.48968387      -0.72517416
C        0.72391348      -0.77060328       0.12505562
C        1.56022164       0.47960712       0.49570545
H       -1.13888260       1.36185278       0.23832296
H       -1.91501745      -0.06970809       1.00971656
H       -2.48020161       0.54211118      -0.59874281
H       -0.13369534      -0.04797039      -1.67865021
H       -0.95490575      -1.75964525      -1.00134177
H        0.44709408      -1.18661584       1.30245120
H        1.36819574      -1.37604593      -0.64101223
H        2.55314598       0.17529908       1.02503965
H        0.98444398       1.19619918       1.05784130
H        1.83476102       1.04842274      -0.44240949
14
Properties=species:S:1:pos:R:3 energy=-4305.117114564319 name=nbu_bent smiles=CCCC config_type=start_20 pbc="F F F"
C       -1.55500230       0.39271751       0.02475507
C       -0.53018439      -0.46377116      -0.67659980
C        0.74941544      -0.78797087       0.14258771
C        1.56679555       0.46812728       0.43740972
H       -1.18732438       1.45830833       0.24984437
H       -1.78884506      -0.04369224       0.73040297
H       -2.42765986       0.40472413      -0.45913491
H       -0.41709405       0.09702395      -1.65791301
H       -0.98749334      -1.44212785      -0.96734291
H        0.45439726      -1.26995500       1.11612862
H        1.38292293      -1.52999820      -0.39592674
H        2.43593722       0.22472410       0.97242156
H        1.01077428       1.14174233       1.03448938
H        1.78303995       1.00094210      -0.42089486
14
Properties=species:S:1:pos:R:3 energy=-4305.117114564319 name=nbu_bent smiles=CCCC config_type=start_21 pbc="F F F"
C       -1.60544839       0.37210551       0.02702576
C       -0.49353045      -0.48772919      -0.68984064
C        0.69301149      -0.77598289       0.12797158
C        1.60127905       0.49140391       0.45826444
H       -1.26662149       1.39784535       0.23895641
H       -1.76955213      -0.03421383       0.96807137
H       -2.39598419       0.45457741      -0.59077187
H       -0.21075945      -0.04915085      -1.64435589
H       -1.06937470      -1.37408654      -0.98462319
H        0.46439541      -1.26185975       1.01210468
H        1.36849917      -1.49164072      -0.40691506
H        2.44349560       0.20944056       1.00023109
H        1.05973356       1.27966510       1.17325141
H        2.06008816       1.02177046      -0.50755758
14
Properties=species:S:1:pos:R:3 energy=-4305.117114564319 name=nbu_bent smiles=CCCC config_type=start_22 pbc="F F F"
C       -1.59841307       0.40244654       0.00245984
C       -0.53815923      -0.49695824      -0.69354491
C        0.73255690      -0.74895758       0.15259988
C        1.60477643       0.46450218       0.45278622
H       -1.20254801       1.41668170       0.23808724
H       -1.79774757      -0.05582450       0.91355592
H       -2.44247633       0.38426101      -0.47937723
H       -0.31849688      -0.00361540      -1.63411265
H       -0.97298404      -1.38771437      -0.92901557
H        0.43716018      -1.29911994       0.97919478
H        1.42274971      -1.50707406      -0.41352540
H        2.48814236       0.23934333       0.99530928
H        1.06877189       1.13046971       1.16033267
H        1.93654154       0.98191002      -0.46329779
14
Properties=species:S:1:pos:R:3 energy=-4305.117114564319 name=nbu_bent smiles=CCCC config_type=start_23 pbc="F F F"
C       -1.57311653       0.36804143       0.04021975
C       -0.51882773      -0.51295924      -0.68630358
C        0.70821381      -0.73812926       0.10918332
C        1.59543343       0.48657114       0.46245071
H       -1.14052128       1.44839075       0.26354247
H       -1.99861002      -0.12049511       1.10213798
H       -2.49935509       0.53636761      -0.63884612
H       -0.15972870      -0.03801035      -1.65458394
H       -1.07235659      -1.35585441      -0.96882371
H        0.43386486      -1.32690000       0.90846626
H        1.38993639      -1.49516368      -0.41391403
H        2.75087551       0.29875354       1.04054822
H        0.98994897       1.19997049       0.89618884
H        1.79422705       0.96056787      -0.30132648
14
Properties=species:S:1:pos:R:3 energy=-4305.117114564319 name=nbu_bent smiles=CCCC config_type=start_24 pbc="F F F"
C       -1.56212188       0.41251926       0.00126452
C       -0.51746271      -0.47683523      -0.68539962
C        0.75292197      -0.78523643       0.12811666
C        1.53668584       0.47247311       0.46804003
H       -1.21899254       1.36586106       0.19955570
H       -1.98409718      -0.04977848       1.19980816
H       -2.50217403       0.55930077      -0.73003625
H        0.02407275      -0.09015628      -1.61940404
H       -1.01936695      -1.33292575      -0.95302638
H        0.44772082      -1.36259513       0.88393184
H        1.48194167      -1.59761723      -0.29037818
H        2.45984829       0.14842144       0.97924167
H        0.98389522       1.22288573       1.20787498
H        1.83532860       1.01288513      -0.48316112
