14
Properties=species:S:1:pos:R:3 energy=-4305.117114564319 name=nbu_bent smiles=CCCC config_type=start_0 pbc="F F F"
C       -1.54083865       0.39885314       0.05570172
C       -0.51669633      -0.50235189      -0.70596040
C        0.78495878      -0.73301546       0.18017071
C        1.59459077       0.46012230       0.44863324
H       -1.20542364       1.37506860       0.25533339
H       -1.93862414      -0.07620147       0.98940602
H       -2.45951749       0.47847642      -0.60681892
H       -0.29772630      -0.04130208      -1.62436435
H       -1.01795726      -1.40479968      -0.95211696
H        0.46768116      -1.22922057       1.09395759
H        1.33461580      -1.44328338      -0.40807282
H        2.51293793       0.17180866       0.97825584
H        1.01381684       1.21551327       1.13814701
H        1.93709661       1.01718077      -0.42809807
14
Properties=species:S:1:pos:R:3 energy=-4305.117114564319 name=nbu_bent smiles=CCCC config_type=start_1 pbc="F F F"
C       -1.53002706       0.35343145       0.04656658
C       -0.51884240      -0.51817439      -0.72763137
C        0.72828034      -0.81725464       0.16580762
C        1.59841546       0.48757469       0.43509207
H       -1.15960994       1.38189456       0.26402116
H       -1.87279882      -0.06100317       1.06591970
H       -2.45716378       0.50700971      -0.60078909
H       -0.26284435       0.04771200      -1.65620056
H       -1.00037601      -1.42620310      -0.98667053
H        0.48889262      -1.22033806       1.07748254
H        1.39556115      -1.50925584      -0.40889280
H        2.46729719       0.21941165       1.00730070
H        1.03124756       1.13530994       1.08646500
H        1.83705803       1.04058666      -0.43076331
14
Properties=species:S:1:pos:R:3 energy=-4305.117114564319 name=nbu_bent smiles=CCCC config_type=start_2 pbc="F F F"
C       -1.55651980       0.37313614       0.09565318
C       -0.50629069      -0.44367828      -0.67570479
C        0.79008116      -0.79347557       0.13201136
C        1.54530230       0.43787602       0.45372778
H       -1.13197053       1.38622181       0.27380401
H       -1.83747999      -0.03633109       0.98723953
H       -2.51135705       0.55316518      -0.59724591
H       -0.18290346       0.02705450      -1.64697747
H       -0.99401967      -1.43890788      -0.95024383
H        0.44014879      -1.27004256       1.07287408
H        1.35971596      -1.51477003      -0.39961597
H        2.40729566       0.19123788       1.04973016
H        1.03596761       1.16975943       1.04589593
H        1.90931846       1.03587682      -0.48813052
14
Properties=species:S:1:pos:R:3 energy=-4305.117114564319 name=nbu_bent smiles=CCCC config_type=start_3 pbc="F F F"
C       -1.53624624       0.38618894       0.00229689
C       -0.54428244      -0.50832174      -0.69141224
C        0.75888279      -0.74956691       0.16954418
C        1.52640530       0.47731881       0.42009697
H       -1.15141237       1.40302745       0.22777999
H       -1.90765441      -0.05816831       0.99204523
H       -2.50509842       0.52607172      -0.60276721
H       -0.25635177       0.00240466      -1.68954042
H       -0.99633231      -1.43564535      -0.98941349
H        0.44530896      -1.31320408       1.07022145
H        1.34665234      -1.49990818      -0.43186294
H        2.50170603       0.18487315       1.02730800
H        0.99841045       1.16638557       1.07352361
H        1.83315211       1.05033797      -0.45421724
14
Properties=species:S:1:pos:R:3 energy=-4305.117114564319 name=nbu_bent smiles=CCCC config_type=start_4 pbc="F F F"
C       -1.58376261       0.41365696       0.08127657
C       -0.50072491      -0.54267300      -0.69665279
C        0.69879745      -0.77427735       0.10045870
C        1.60411384       0.47706603       0.46077604
H       -1.15413761       1.44655914       0.28513756
H       -1.87109801      -0.06454538       0.97231936
H       -2.48165982       0.52656442      -0.63919161
H       -0.28350299       0.00915678      -1.67396010
H       -1.00076058      -1.43930200      -0.95412108
H        0.44766355      -1.30698563       1.13864548
H        1.33049646      -1.43647803      -0.40838504
H        2.51399852       0.23881538       1.02275148
H        1.04273360       1.16373584       1.08066395
H        1.84489324       0.98326088      -0.51601400
14
Properties=species:S:1:pos:R:3 energy=-4305.117114564319 name=nbu_bent smiles=CCCC config_type=start_5 pbc="F F F"
C       -1.60051573       0.37129759       0.05214567
C       -0.54621577      -0.43452414      -0.73400987
C        0.70229320      -0.78378527       0.09319587
C        1.54007433       0.44579141       0.44705369
H       -1.19660735       1.35050720       0.24322850
H       -1.91052528      -0.03342811       0.96389844
H       -2.46937279       0.50980422      -0.59685001
H       -0.22700856       0.04537297      -1.62272360
H       -1.03916960      -1.48963196      -0.93314082
H        0.44457517      -1.23220830       1.10294619
H        1.39913771      -1.52349554      -0.42340449
H        2.46274257       0.26873710       1.06830382
H        1.07856683       1.16919227       1.08451285
H        1.92371184       0.98063596      -0.46814052
14
Properties=species:S:1:pos:R:3 energy=-4305.117114564319 name=nbu_bent smiles=CCCC config_type=start_6 pbc="F F F"
C       -1.51984232       0.38950345      -0.02102702
C       -0.53401406      -0.46027953      -0.73513753
C        0.68621534      -0.75697356       0.10850293
C        1.61934292       0.48329461       0.51045903
H       -1.14272622       1.42989645       0.23332941
H       -1.90581788      -0.00553289       1.02373453
H       -2.45637469       0.49031278      -0.57494143
H       -0.22846546      -0.00435710      -1.62115556
H       -0.98145387      -1.49512426      -0.92271754
H        0.43661118      -1.24330658       1.10488593
H        1.34334672      -1.48471170      -0.41667000
H        2.52267133       0.23844396       1.01289355
H        1.01361579       1.21711038       1.09523522
H        1.88352362       1.00424045      -0.41469866
14
Properties=species:S:1:pos:R:3 energy=-4305.117114564319 name=nbu_bent smiles=CCCC config_type=start_7 pbc="F F F"
C       -1.58148678       0.38995287       0.04424374
C       -0.49963905      -0.45378247      -0.68764075
C        0.69706104      -0.80231673       0.11612152
C        1.60036681       0.46096482       0.47195907
H       -1.18222490       1.43114728       0.20854321
H       -1.84170494      -0.07244658       0.96522985
H       -2.45797978       0.49183670      -0.58736204
H       -0.15728018       0.02857225      -1.64423588
H       -0.96337046      -1.47373900      -0.95131766
H        0.46328659      -1.27462557       1.09433493
H        1.35432146      -1.51107189      -0.42343318
H        2.51306186       0.17961370       1.02331832
H        1.01235650       1.16574602       1.04300346
H        1.88576576       1.02500931      -0.43004139
14
Properties=species:S:1:pos:R:3 energy=-4305.117114564319 name=nbu_bent smiles=CCCC config_type=start_8 pbc="F F F"
C       -1.56674416       0.39343330       0.02846938
C       -0.51437051      -0.52576880      -0.74004507
C        0.75323030      -0.73694218       0.14543411
C        1.58913751       0.51187183       0.49350012
H       -1.14853582       1.44720556       0.26932120
H       -1.86648519      -0.06154973       1.00659899
H       -2.46789934       0.50492650      -0.60984522
H       -0.20666847       0.04439089      -1.59441906
H       -1.01355643      -1.46870220      -0.98502133
H        0.45983748      -1.31045187       1.09953764
H        1.34687751      -1.49656934      -0.44767065
H        2.55427800       0.17768962       1.00621458
H        1.00897317       1.16750880       1.09819054
H        1.91787914       1.01029102      -0.41180874
14
Properties=species:S:1:pos:R:3 energy=-4305.117114564319 name=nbu_bent smiles=CCCC config_type=start_9 pbc="F F F"
C       -1.59119337       0.39316319      -0.01306857
C       -0.50330839      -0.48566599      -0.66907922
C        0.71968372      -0.77233734       0.14941742
C        1.60832395       0.50394915       0.44939361
H       -1.14532528       1.36645534       0.25797499
H       -1.90444612      -0.10784389       0.96344755
H       -2.42962424       0.50467475      -0.64262242
H       -0.23129915      -0.01802261      -1.67135463
H       -0.97550309      -1.46462572      -0.94667504
H        0.43598823      -1.33309397       1.07588007
H        1.32466572      -1.43733634      -0.42832398
H        2.56921432       0.19058467       1.02174363
H        0.99164095       1.12497930       1.13553050
H        1.85634104       1.01375747      -0.44849759
14
Properties=species:S:1:pos:R:3 energy=-4305.117114564319 name=nbu_bent smiles=CCCC config_type=start_10 pbc="F F F"
C       -1.59507241       0.39094907      -0.03905452
C       -0.48370754      -0.49658420      -0.70282726
C        0.70288776      -0.80494488       0.16264050
C        1.60180447       0.50623163       0.44947298
H       -1.17361941       1.43023151       0.23619556
H       -1.85975303      -0.09303343       0.94151539
H       -2.48961457       0.52078795      -0.60038683
H       -0.24279443       0.05937907      -1.65341481
H       -1.00901292      -1.50057080      -0.98212984
H        0.46910267      -1.27741995       1.05307781
H        1.40191076      -1.44435718      -0.39668593
H        2.47692005       0.21087241       1.02389659
H        0.99968588       1.20632918       1.06662787
H        1.80702855       0.98522973      -0.46912869
14
Properties=species:S:1:pos:R:3 energy=-4305.117114564319 name=nbu_bent smiles=CCCC config_type=start_11 pbc="F F F"
C       -1.55678512       0.37858534       0.01520236
C       -0.49523260      -0.44852982      -0.67423340
C        0.70985090      -0.75827700       0.13641369
C        1.55559157       0.50962186       0.43953805
H       -1.17092149       1.36792689       0.27024558
H       -1.86242761      -0.07405310       0.96023832
H       -2.46536005       0.49908689      -0.59609221
H       -0.28247330      -0.04392211      -1.58200308
H       -0.97569082      -1.47556722      -0.95889644
H        0.49313408      -1.22644655       1.12718999
H        1.39827347      -1.48465700      -0.44273501
H        2.52649834       0.22012498       1.01539192
H        1.05415078       1.22753433       1.06913114
H        1.86520418       0.94868884      -0.50371996
14
Properties=species:S:1:pos:R:3 energy=-4305.117114564319 name=nbu_bent smiles=CCCC config_type=start_12 pbc="F F F"
C       -1.56788721       0.41869016       0.02791791
C       -0.55980879      -0.46432673      -0.72575520
C        0.75982283      -0.79130450       0.13041798
C        1.54599228       0.43792858       0.43886746
H       -1.17506457       1.40889593       0.26254698
H       -1.88449692      -0.05951737       1.01037146
H       -2.53599589       0.55926629      -0.62448802
H       -0.20651703      -0.03805528      -1.68177115
H       -1.00814518      -1.49357614      -0.91343568
H        0.45375246      -1.25171109       1.07764394
H        1.37763478      -1.46738954      -0.39901858
H        2.54401699       0.21692347       1.00225865
H        1.00521627       1.17400336       1.10497895
H        1.86860905       1.02777774      -0.45656912
14
Properties=species:S:1:pos:R:3 energy=-4305.117114564319 name=nbu_bent smiles=CCCC config_type=start_13 pbc="F F F"
C       -1.56442830       0.36604356       0.00120115
C       -0.53164538      -0.42831555      -0.63962549
C        0.72159663      -0.73476908       0.07488205
C        1.56115063       0.49513691       0.44084142
H       -1.15230113       1.42339401       0.22993290
H       -1.91231970      -0.06254102       0.98470393
H       -2.46539781       0.52101240      -0.61500511
H       -0.15917894       0.00510614      -1.68506911
H       -1.01532822      -1.42224547      -0.95125266
H        0.45662796      -1.29526783       1.12971504
H        1.39430435      -1.47521375      -0.43285982
H        2.55164374       0.21831448       1.02330899
H        1.00979243       1.19879197       1.08031433
H        1.86878735       1.01771325      -0.47039192
14
Properties=species:S:1:pos:R:3 energy=-4305.117114564319 name=nbu_bent smiles=CCCC config_type=start_14 pbc="F F F"
C       -1.56336865       0.35612595       0.06778221
C       -0.56061548      -0.51338477      -0.71382238
C        0.76037815      -0.75865166       0.15282853
C        1.60030457       0.46171970       0.42886707
H       -1.16210544       1.41532813       0.27418317
H       -1.88958332      -0.10410338       0.94607730
H       -2.51126450       0.47820375      -0.60549757
H       -0.27523992      -0.02232637      -1.68557161
H       -0.98201544      -1.41944683      -0.99677200
H        0.45838367      -1.30627001       1.07593812
H        1.34119226      -1.45629737      -0.37052234
H        2.50708810       0.21896615       1.00665682
H        0.97781147       1.18388235       1.07521937
H        1.86051953       1.05298521      -0.44822617
14
Properties=species:S:1:pos:R:3 energy=-4305.117114564319 name=nbu_bent smiles=CCCC config_type=start_15 pbc="F F F"
C       -1.50587967       0.40337370       0.05305261
C       -0.52520701      -0.45095850      -0.65010904
C        0.71912542      -0.79240035       0.13814237
C        1.57248398       0.47820366       0.47456880
H       -1.16677880       1.38651695       0.20718741
H       -1.84131034      -0.08941728       0.93748587
H       -2.44676492       0.49651336      -0.59766782
H       -0.18108044      -0.00696214      -1.59803194
H       -0.98917444      -1.45055637      -0.95786693
H        0.41959245      -1.27722501       1.09051325
H        1.37397205      -1.52284910      -0.47382506
H        2.51210480       0.21816140       1.05000375
H        1.00601571       1.16120156       1.04385182
H        1.92124719       1.01341100      -0.45084095
14
Properties=species:S:1:pos:R:3 energy=-4305.117114564319 name=nbu_bent smiles=CCCC config_type=start_16 pbc="F F F"
C       -1.52367426       0.32330887       0.02457587
C       -0.53931154      -0.45762125      -0.67442522
C        0.71550881      -0.77151050       0.18961597
C        1.55852971       0.51053674       0.49150073
H       -1.21595293       1.41180588       0.23734158
H       -1.94901377      -0.13844455       0.94562787
H       -2.50512705       0.55931030      -0.61078991
H       -0.22764705       0.01701853      -1.67077676
H       -1.01346279      -1.49042880      -0.96756372
H        0.45590327      -1.28964737       1.13881125
H        1.38069828      -1.54053852      -0.41360271
H        2.50189918       0.19357453       1.01208845
H        0.98169804       1.13279452       1.09985167
H        1.82043290       0.99132375      -0.45822959
14
Properties=species:S:1:pos:R:3 energy=-4305.117114564319 name=nbu_bent smiles=CCCC config_type=start_17 pbc="F F F"
C       -1.52045567       0.39088875      -0.03455079
C       -0.51109637      -0.50266702      -0.66213042
C        0.71235544      -0.80762250       0.17209147
C        1.59669257       0.48991521       0.45324384
H       -1.20647409       1.44296477       0.21161165
H       -1.87495712      -0.04485739       0.99332888
H       -2.49252463       0.52582373      -0.64384867
H       -0.21961613      -0.03579124      -1.65017634
H       -0.99119558      -1.47772152      -0.96845075
H        0.46456533      -1.28708527       1.09153734
H        1.34340514      -1.50576762      -0.42950207
H        2.55079209       0.20703517       1.02853987
H        1.03809013       1.21441790       1.11395119
H        1.87461474       1.02121831      -0.45785261
14
Properties=species:S:1:pos:R:3 energy=-4305.117114564319 name=nbu_bent smiles=CCCC config_type=start_18 pbc="F F F"
C       -1.62119237       0.35330542       0.01853696
C       -0.49130773      -0.43011147      -0.67914328
C        0.76347302      -0.77743450       0.06517226
C        1.52535972       0.46137439       0.44803624
H       -1.13218363       1.39443798       0.26502049
H       -1.88458988      -0.03511262       0.99124395
H       -2.49195755       0.52349426      -0.65559912
H       -0.22096249       0.02938660      -1.64088389
H       -0.99458295      -1.46650552      -0.93162796
H        0.46582332      -1.28022085       1.09828941
H        1.33439143      -1.50397963      -0.43496186
H        2.46352790       0.19908606       0.99042672
H        1.01178423       1.19304176       1.05155403
H        1.88867692       0.94774582      -0.48289463
14
Properties=species:S:1:pos:R:3 energy=-4305.117114564319 name=nbu_bent smiles=CCCC config_type=start_19 pbc="F F F"
C       -1.54341926       0.43009275       0.05765715
C       -0.49823530      -0.47565867      -0.68198673
C        0.76068793      -0.76821990       0.15325141
C        1.57055787       0.41574553       0.44304760
H       -1.14033077       1.43920480       0.28003763
H       -1.84686948      -0.12506934       1.03832176
H       -2.48515931       0.50112258      -0.63188204
H       -0.29383310       0.05686674      -1.67363013
H       -1.05637756      -1.44507022      -0.95468135
H        0.39984922      -1.31484113       1.03503058
H        1.36674058      -1.47152554      -0.42223988
H        2.48013953       0.22906956       1.02777964
H        0.98520886       1.15817469       1.08792161
H        1.87066943       1.01434530      -0.42935508
14
Properties=species:S:1:pos:R:3 energy=-4305.117114564319 name=nbu_bent smiles=CCCC config_type=start_20 pbc="F F F"
C       -1.61423876       0.39748826       0.00778785
C       -0.54090346      -0.45667058      -0.70900220
C        0.75512635      -0.79715634       0.10893390
C        1.56140111       0.49377698       0.46822861
H       -1.17531292       1.42057659       0.19688914
H       -1.85630308      -0.08788092       0.99802079
H       -2.51912463       0.49495189      -0.62282303
H       -0.17465500       0.01867122      -1.63583386
H       -1.00847416      -1.42447109      -0.93542735
H        0.43084627      -1.27612092       1.05991729
H        1.39094047      -1.47458380      -0.42892193
H        2.50881354       0.21623305       0.97432126
H        1.01337126       1.19286571       1.07196205
H        1.79311741       0.99457727      -0.45460886
14
Properties=species:S:1:pos:R:3 energy=-4305.117114564319 name=nbu_bent smiles=CCCC config_type=start_21 pbc="F F F"
C       -1.58516344       0.42831554       0.04005750
C       -0.53078199      -0.48772513      -0.71269217
C        0.70992516      -0.78384559       0.10763929
C        1.58124326       0.46598675       0.43153388
H       -1.20288172       1.41923413       0.21501129
H       -1.84165002      -0.09925485       0.98139576
H       -2.45171417       0.48842764      -0.64952948
H       -0.19675540       0.01121336      -1.63215411
H       -1.04298449      -1.45980602      -1.03733880
H        0.46747540      -1.27524521       1.12245888
H        1.36215587      -1.45670213      -0.39783074
H        2.51337067       0.23617760       0.97812898
H        1.03308639       1.16370718       1.06225804
H        1.92899052       1.04318713      -0.46210653
14
Properties=species:S:1:pos:R:3 energy=-4305.117114564319 name=nbu_bent smiles=CCCC config_type=start_22 pbc="F F F"
C       -1.51416223       0.35869034      -0.00538048
C       -0.53298232      -0.48276476      -0.65737345
C        0.69291538      -0.74935108       0.10309249
C        1.54019258       0.49103510       0.46767866
H       -1.12201725       1.39666434       0.22141760
H       -1.84808695      -0.04614665       0.96803769
H       -2.46034309       0.51113409      -0.54105255
H       -0.28816504      -0.03987894      -1.64298768
H       -0.97066766      -1.45902789      -0.95472653
H        0.45752762      -1.31894765       1.10338808
H        1.34136622      -1.48320764      -0.40009659
H        2.50921531       0.22536650       1.00875240
H        0.98949725       1.18641735       1.09829146
H        1.85556752       1.02481645      -0.47256007
14
Properties=species:S:1:pos:R:3 energy=-4305.117114564319 name=nbu_bent smiles=CCCC config_type=start_23 pbc="F F F"
C       -1.52071089       0.45497022       0.05361899
C       -0.50144379      -0.47849806      -0.72825633
C        0.76797364      -0.73030339       0.11838528
C        1.57625243       0.41224772       0.45426557
H       -1.17987442       1.41924059       0.26652694
H       -1.87981456      -0.10606888       0.95698386
H       -2.43698941       0.54293131      -0.61093192
H       -0.23995834       0.02309438      -1.65653007
H       -0.97763414      -1.41469296      -0.96605130
H        0.42430348      -1.30876973       1.04159388
H        1.31309911      -1.51375578      -0.39086035
H        2.50131145       0.21781804       1.01753413
H        1.02277878       1.22800844       1.09392015
H        1.75190343       1.06337919      -0.48951299
14
Properties=species:S:1:pos:R:3 energy=-4305.117114564319 name=nbu_bent smiles=CCCC config_type=start_24 pbc="F F F"
C       -1.53561945       0.33326002      -0.02224820
C       -0.50896705      -0.47518362      -0.69469751
C        0.76293457      -0.80556964       0.17740442
C        1.55036545       0.46433880       0.43583725
H       -1.20987042       1.38005010       0.27041901
H       -1.81187831      -0.03418770       0.95360407
H       -2.48813462       0.57056503      -0.59127302
H       -0.25932562       0.00313714      -1.62370008
H       -0.97829005      -1.49489067      -0.98777836
H        0.39752485      -1.28713653       1.10502268
H        1.37790917      -1.48768662      -0.43136223
H        2.50569314       0.22085282       0.96635356
H        1.02976661       1.19432295       1.07185666
H        1.90192307       1.02411276      -0.42727903
