14
Properties=species:S:1:pos:R:3 energy=-4305.138647313924 name=nbu_straight smiles=CCCC config_type=start_0 pbc="F F F"
C       -1.60472541      -0.20667757      -0.34259709
C       -0.81091244      -0.44729041       0.70951457
C        0.86966594       0.28280186       0.30649976
C        1.46751001       0.08917214       0.40154971
H       -2.59258566      -0.35671145       0.29074894
H       -2.36287512       0.87669892      -0.50705467
H       -2.15354119      -0.80615083      -1.03917706
H       -0.95118274       0.60102456       1.12781080
H       -0.56347313      -1.07241652       0.93429307
H        0.72454461      -0.97965877      -0.93426851
H        0.34818342       0.98592916      -0.63000643
H        1.92076225       0.59759854       1.86120698
H        1.90906846      -1.16647927       1.07799711
H        2.45218914       0.71281668       0.29674064
14
Properties=species:S:1:pos:R:3 energy=-4305.138647313924 name=nbu_straight smiles=CCCC config_type=start_1 pbc="F F F"
C       -2.07988907       0.06800262       0.44719967
C       -0.37533710      -0.79080297       0.65710911
C        0.26881253       0.03569754      -0.38435497
C        2.24459538       0.08664430       0.80834043
H       -2.61983810       0.07860542       0.86432457
H       -1.99731106       0.81292815      -0.70431338
H       -1.91915517      -0.80122377      -1.40342115
H       -1.22269488       0.66854578       1.28361399
H       -0.60775584      -1.10898301       1.28721721
H        0.74809046      -0.91747425      -0.25002818
H        0.18662461       1.62023074      -0.39522743
H        2.04368717       1.13702085       1.81564176
H        2.35230005      -1.19297655       1.14940049
H        2.56960041       0.04204583      -0.32122698
14
Properties=species:S:1:pos:R:3 energy=-4305.138647313924 name=nbu_straight smiles=CCCC config_type=start_2 pbc="F F F"
C       -2.24742026      -0.35559114       0.15589070
C       -0.83024565       0.29068559       0.28353825
C        0.30376999      -0.05938174      -0.45698334
C        1.60420031      -0.22610186       0.67111692
H       -3.04453545      -0.88191404       0.44523402
H       -2.39158383       1.12410087      -0.78852261
H       -1.79628486      -0.96882578      -0.98000512
H       -0.65775065       1.03070769       1.79597905
H       -0.99184602      -1.61228257       1.49701982
H        0.71720671      -0.16970098      -0.60702110
H        0.87303707       0.75005557      -0.54542193
H        1.53112772       1.43623802       2.27116522
H        2.71063227      -1.13841231       1.18788946
H        3.35778636       0.01579658       0.15750784
14
Properties=species:S:1:pos:R:3 energy=-4305.138647313924 name=nbu_straight smiles=CCCC config_type=start_3 pbc="F F F"
C       -1.44068623      -0.17353251      -0.57583621
C       -0.70822856       0.03313170       0.27226174
C        0.14299141       0.20873536      -0.30391268
C        2.39688619       0.14893010       1.30517029
H       -2.50572419      -0.08802148       0.34624306
H       -2.34450981       1.40305310      -0.19016169
H       -1.66630391      -1.16374021      -0.76091935
H       -0.67231960       0.53340697       1.81165945
H       -0.41468875      -1.66720562       1.60125259
H        0.63756678      -0.28068380      -0.58762373
H        0.31512718       1.13789404      -0.47807704
H        2.13041535       1.13330658       1.71706253
H        2.06112194      -0.65923116       1.29511320
H        2.95590418       0.25184152       0.69192640
14
Properties=species:S:1:pos:R:3 energy=-4305.138647313924 name=nbu_straight smiles=CCCC config_type=start_4 pbc="F F F"
C       -2.05713078      -0.16903831       0.07687135
C       -0.36447846       0.09810232       0.74722947
C        0.25144844      -0.24469626      -0.22772678
C        2.20712510      -0.07436782       0.92017070
H       -2.90071100      -0.07551324       0.09838109
H       -1.70338038       0.73391616      -0.77520845
H       -1.68235484      -1.14850105      -0.88512536
H        0.03953319       0.86270046       1.58085619
H       -0.23385462      -1.45335298       1.31525135
H        0.90432095      -0.59387374      -0.69313367
H        0.42487465       0.87429213      -0.54570884
H        2.03432059       0.54500399       1.82131016
H        2.04852904      -1.17287476       0.77279558
H        2.97832565       0.45953009       0.53849914
14
Properties=species:S:1:pos:R:3 energy=-4305.138647313924 name=nbu_straight smiles=CCCC config_type=start_5 pbc="F F F"
C       -1.90970457      -0.13423400      -0.08087222
C       -0.51179314      -0.62176097       0.22318632
C        0.81314096       0.40904918       0.06539914
C        2.09483211       0.43470235       1.13558125
H       -2.56382019       0.08506960       0.70616102
H       -1.95118295       0.84288468      -0.36151712
H       -1.78155044      -1.01760303      -1.10995722
H       -0.45434974       1.02088694       2.07902443
H       -0.73571432      -1.40298496       0.97821468
H        0.86982985      -0.95213670      -0.64110661
H        0.35043512       1.01931764      -0.78808347
H        2.44648202       0.52576322       1.65027279
H        2.01469570      -1.15524696       1.32466638
H        3.29945939       0.31234718       0.72082562
14
Properties=species:S:1:pos:R:3 energy=-4305.138647313924 name=nbu_straight smiles=CCCC config_type=start_6 pbc="F F F"
C       -2.15419674      -0.13693508      -0.49625167
C       -0.40117186      -0.22073292       0.93284484
C        0.47767522       0.05509761       0.10523224
C        2.28669651       0.35547545       0.69451615
H       -2.53171484      -0.72243259       0.59269892
H       -2.33079224       0.37994312      -0.79303148
H       -1.39879942      -1.02012051      -1.43772925
H       -0.70065648       0.39675192       1.30966872
H       -0.35518087      -1.36222019       1.36167760
H        0.63133734      -1.17855770      -0.87768228
H        0.12831718       1.61164762      -0.59461680
H        2.59584520       0.65471373       1.80556325
H        1.84137348      -1.58054197       1.69806600
H        2.68407841       0.34701168       0.35393713
14
Properties=species:S:1:pos:R:3 energy=-4305.138647313924 name=nbu_straight smiles=CCCC config_type=start_7 pbc="F F F"
C       -2.19298709      -0.15907625      -0.75611120
C       -0.20516337      -0.32991497       0.59536444
C        0.30971563      -0.27097780       0.23746303
C        2.22150175       0.37830029       0.69530983
H       -2.81465614      -0.08467088       0.37490464
H       -1.88386131       0.52804767      -1.01235314
H       -1.99870266      -0.85898848      -1.01537335
H       -0.81560931       1.17076875       1.48906690
H       -0.69027922      -1.72167095       1.00712955
H        0.96248168      -0.62181752      -1.10570488
H        0.90076759       1.54143924      -0.27823625
H        1.67290251       0.85759108       1.82709290
H        1.92182280      -0.76704319       1.00903974
H        2.19095347       0.06173426       0.14762605
14
Properties=species:S:1:pos:R:3 energy=-4305.138647313924 name=nbu_straight smiles=CCCC config_type=start_8 pbc="F F F"
C       -1.81011416      -0.28271355      -0.21354244
C       -0.32041400       0.15062879       0.88130299
C        0.37934701       0.19570101      -0.02480514
C        1.75937271       0.41220263       0.59596047
H       -2.78767689      -0.70771714       0.71540478
H       -1.91060707       0.71785105      -0.82512383
H       -1.75615754      -1.07599913      -0.97242714
H       -1.21239797       0.13775694       2.20318422
H       -0.35705815      -1.47163523       1.23946364
H        1.20279582      -0.11208351      -0.36458310
H        0.86439471       1.13844102      -0.73872711
H        2.16868542       0.95011681       1.74204624
H        2.46647176      -0.55499171       1.03407244
H        2.77270976      -0.30367456      -0.19828656
14
Properties=species:S:1:pos:R:3 energy=-4305.138647313924 name=nbu_straight smiles=CCCC config_type=start_9 pbc="F F F"
C       -1.92113512       0.11833459      -0.08638688
C       -0.96617592      -0.00734029       0.36608502
C        0.87906631      -0.13457396      -0.08476224
C        1.66337978      -0.30473017       0.58925461
H       -2.82910770      -0.29802673       0.63841879
H       -2.13130021       0.86320829      -0.32379239
H       -2.46251594      -0.47420505      -1.25638523
H       -0.45283526       0.19642516       1.20550350
H       -0.68160181      -1.65172438       1.69407118
H        0.80897964      -0.36472889      -0.86004362
H        0.65800782       1.31111558      -0.30156278
H        2.34387185       0.91810168       1.61071351
H        1.97712666      -1.09030136       1.39255050
H        2.80675853       0.48721440       0.27322181
14
Properties=species:S:1:pos:R:3 energy=-4305.138647313924 name=nbu_straight smiles=CCCC config_type=start_10 pbc="F F F"
C       -1.88654603      -0.40813137      -0.35355449
C       -0.68454181       0.35277154       1.22738207
C        0.49680431       0.43078016      -0.64012146
C        1.81496330       0.26735306       0.60899420
H       -2.60147326      -0.15304589       0.31227796
H       -2.40952801       0.83297183      -0.58046772
H       -1.75653506      -0.85674400      -1.16155608
H        0.02054555       0.62803944       1.17252387
H       -0.75343222      -0.93841775       1.31590144
H        0.83773458      -0.80029626      -0.33933260
H        0.82470347       1.23287345      -0.63997523
H        2.42013938       0.93201178       1.82121690
H        2.02288835      -0.84241532       1.14590428
H        2.80854149       0.38656950       0.13499377
14
Properties=species:S:1:pos:R:3 energy=-4305.138647313924 name=nbu_straight smiles=CCCC config_type=start_11 pbc="F F F"
C       -1.87594946      -0.50730745       0.31225610
C       -0.97424275      -0.49792065       0.48541316
C        0.88461950       0.19195438       0.13934334
C        2.20650273      -0.06681898       0.48925069
H       -2.69951638      -0.23370474       0.75478071
H       -2.18216417       0.41734825      -0.96673400
H       -2.21520203      -1.28483047      -1.06648068
H       -1.14006424       0.35371433       1.16749885
H       -0.42030444      -0.91043127       0.86070796
H        0.85529168      -0.91031808      -0.87710184
H        0.29358264       1.42203731      -0.01660037
H        1.97458302       0.93852846       1.65469516
H        1.70307872      -0.99151145       1.09495473
H        2.72586335       0.73928912       0.35665135
14
Properties=species:S:1:pos:R:3 energy=-4305.138647313924 name=nbu_straight smiles=CCCC config_type=start_12 pbc="F F F"
C       -1.30105969      -0.03482996       0.16496007
C       -0.62015809       0.12634200       1.12254658
C        0.47209222      -0.14553247      -0.00751827
C        1.92829679       0.09802057       0.94626804
H       -2.74624999      -0.52181653       0.08482308
H       -1.69943443       0.56420919      -1.05264832
H       -1.57020616      -1.10173437      -0.98818325
H       -0.19846939       0.50735656       2.04289560
H       -0.49189439      -1.22152668       1.24975868
H        0.46737948      -0.61986809      -0.73135050
H        0.62138053       0.75651997      -1.04962757
H        2.02474997       0.93048105       2.08816447
H        1.98512112      -1.21831939       0.78127922
H        3.33313993       0.34354698       0.33050353
14
Properties=species:S:1:pos:R:3 energy=-4305.138647313924 name=nbu_straight smiles=CCCC config_type=start_13 pbc="F F F"
C       -1.47900557      -0.83547827      -0.11980730
C       -0.76120340       0.05971452       0.87938481
C        0.43592610       0.06336599       0.50721773
C        1.78875414       0.42135145       1.11558731
H       -3.23799130      -0.26892718       0.38636477
H       -2.77646873       0.07393649      -0.97122834
H       -2.15382752      -0.47376497      -1.11940406
H       -0.66413554       0.74716333       1.31544735
H       -0.73477789      -1.62025103       1.15279079
H        0.83048769      -0.74409169      -0.24837045
H        0.68864284       0.57962582      -0.44740407
H        1.92269384       0.68461226       1.70901146
H        1.74194442      -1.50238979       1.34127769
H        2.32499705       0.12267446       0.25661706
14
Properties=species:S:1:pos:R:3 energy=-4305.138647313924 name=nbu_straight smiles=CCCC config_type=start_14 pbc="F F F"
C       -1.44681967      -0.15967946      -0.71107387
C       -0.47905169      -0.39074318       1.00233282
C        0.40439244      -0.29775401       0.33197271
C        2.17038269       0.21513607       0.73301835
H       -3.14320288       0.04266165       0.12906553
H       -2.03590219       1.00980815      -0.49421822
H       -2.02780325      -0.80863069      -1.44999171
H       -0.58382630       0.21906558       1.52145163
H       -0.51210576      -1.49317821       1.14392049
H        0.91710831      -0.71847066      -0.72110955
H        0.31571141       0.92733476      -0.60639772
H        2.41162290       0.81921871       1.87352572
H        2.30586526      -0.68615598       1.48227290
H        2.86681535       0.42162011       0.26038686
14
Properties=species:S:1:pos:R:3 energy=-4305.138647313924 name=nbu_straight smiles=CCCC config_type=start_15 pbc="F F F"
C       -2.45418673      -0.53551280      -0.18019637
C       -0.28116529       0.33481232       0.83220418
C        0.91556821       0.00412600      -0.73721944
C        1.45705421      -0.07027209       0.68094239
H       -2.40029831      -0.44260619       0.66315394
H       -2.13222980       1.10725580      -0.51506755
H       -2.02213255      -0.83192542      -1.56749622
H       -0.59728992       0.87084395       1.61437605
H       -0.54597954      -1.38101815       1.51214839
H        0.92968820      -0.64982651      -0.65358889
H        0.22557429       0.94521470      -0.66099564
H        1.53898096       0.73972759       1.49239423
H        2.04280629      -0.89991742       0.85830129
H        3.00743716      -0.31310475       0.00996669
14
Properties=species:S:1:pos:R:3 energy=-4305.138647313924 name=nbu_straight smiles=CCCC config_type=start_16 pbc="F F F"
C       -1.67645556       0.23236051       0.21100551
C       -0.35044095      -0.12065974       0.80376968
C        0.88771734       0.09627199       0.14357210
C        1.90903566      -0.52656068       0.63105600
H       -2.48176966       0.00506197       0.81332530
H       -1.75502578       0.20768864      -0.04428936
H       -1.95415012      -1.05564218      -1.33032543
H       -1.32599599       1.14564541       1.28691371
H       -1.16392564      -1.16666521       1.28161454
H        0.26994719      -0.99602928      -1.28617721
H        0.54906582       1.26975558      -0.53377576
H        1.70509727       1.03956255       1.86592336
H        1.77705258      -1.24858808       1.22197711
H        2.82736235       0.35288997       0.54536218
14
Properties=species:S:1:pos:R:3 energy=-4305.138647313924 name=nbu_straight smiles=CCCC config_type=start_17 pbc="F F F"
C       -2.38465059      -0.09368439      -0.28768750
C       -0.77712264       0.06922119       0.53361496
C        0.83210150      -0.19309245      -0.29960301
C        1.81746808       0.25375376       0.88286609
H       -2.83159119      -0.18122013      -0.01815957
H       -1.84936178       0.57957278      -0.44729913
H       -2.29380327      -1.11734906      -1.23973530
H       -0.13421496       0.76369019       1.66487636
H       -0.68489164      -0.96067389       1.47415454
H        0.57991769      -0.60882717      -1.03731011
H        0.79106471       1.23917298      -0.60059627
H        1.99183735       0.91119754       1.33133958
H        2.05867659      -0.90167789       1.06238155
H        2.05184205       0.15520969       0.29282438
14
Properties=species:S:1:pos:R:3 energy=-4305.138647313924 name=nbu_straight smiles=CCCC config_type=start_18 pbc="F F F"
C       -2.09389738       0.21458835       0.03500902
C       -0.67590792      -0.24132429       0.49671534
C        0.38008962      -0.05998487      -0.31254909
C        2.01588956      -0.02414849       0.51591884
H       -3.10727915      -0.19464466       0.16306190
H       -1.70283120       0.46583345      -0.61354942
H       -1.61969872      -1.18259162      -1.50679983
H       -0.35521901       0.68911163       1.70167394
H       -1.02999490      -1.31402324       0.45504004
H        0.94620901      -0.60007011      -0.41189420
H        0.50321871       1.41798971      -0.28968443
H        2.03740873       1.11064297       1.36941676
H        2.25582788      -1.19326325       0.96534144
H        3.41057321       0.64130829       0.21784772
14
Properties=species:S:1:pos:R:3 energy=-4305.138647313924 name=nbu_straight smiles=CCCC config_type=start_19 pbc="F F F"
C       -1.38388526      -0.48166358      -0.41937076
C       -0.69791119      -0.19172059       1.04990246
C        0.20999182       0.28496022      -0.35801714
C        1.60538285       0.22633497       0.87736657
H       -2.29863445      -0.42034264       0.22712503
H       -1.76720048       0.99691546      -0.74713010
H       -1.70598792      -0.95552714      -0.42203048
H       -1.26931538       0.17818859       1.59333819
H       -0.30682658      -1.30624194       1.28116266
H        0.84673121      -1.03709453      -0.60260218
H        0.29532224       1.15293464      -0.31234293
H        1.99585507       1.00253201       1.67565100
H        1.81993653      -0.96616151       1.32567564
H        2.67634319       0.45760154       0.11331228
14
Properties=species:S:1:pos:R:3 energy=-4305.138647313924 name=nbu_straight smiles=CCCC config_type=start_20 pbc="F F F"
C       -1.44937192       0.48113519       0.17062388
C       -0.38252588      -0.14905357       0.34107371
C        0.96057440       0.47543707      -0.20508920
C        1.96598126      -0.56153881       0.74323569
H       -2.87720620      -0.19458007       0.67821843
H       -2.08447664       0.39769319      -0.85766845
H       -1.47245113      -0.63755487      -1.12082419
H       -0.78724842       0.80792182       1.45791433
H       -0.37649144      -0.86289263       1.16791502
H        0.51448977      -0.93531527      -1.22054419
H        0.01265107       0.84745318      -0.21998049
H        1.91681648       0.92704736       1.76346828
H        2.15275183      -0.55025061       1.28196251
H        1.63970232       0.84322895      -0.05621691
14
Properties=species:S:1:pos:R:3 energy=-4305.138647313924 name=nbu_straight smiles=CCCC config_type=start_21 pbc="F F F"
C       -1.59845755      -0.73596677      -0.58804801
C       -0.45775846      -0.11590922       0.67666188
C        0.91018372      -0.27722541       0.38510225
C        1.70711151      -0.04062797       0.55895250
H       -3.17716619      -0.58648504       0.71713905
H       -1.40511413       1.11650503      -0.89146632
H       -1.98390322      -0.36121766      -0.92423522
H       -0.98092120       0.60834937       1.78621416
H       -0.38305047      -1.66486971       0.95064444
H        0.24670352      -0.71898327      -0.58625623
H        0.66075169       1.10814476      -0.62499925
H        1.96063341       0.95739520       1.25166261
H        2.22263006      -0.88710550       1.06132764
H        3.13989874       0.45056457       0.56612272
14
Properties=species:S:1:pos:R:3 energy=-4305.138647313924 name=nbu_straight smiles=CCCC config_type=start_22 pbc="F F F"
C       -1.67374243       0.34606139      -0.95927140
C       -0.57613733      -0.17825409       1.19601035
C        0.43283977       0.01670805       0.01392697
C        2.19775227      -0.32811705       1.00536535
H       -2.19343941      -0.83209538       1.02229253
H       -2.28368913       0.85169061      -1.09130959
H       -1.96929681      -0.77076361      -0.64592784
H       -1.15835374       0.93851052       1.36718881
H       -0.38065680      -1.27723511       1.08718748
H        0.99950496      -0.69840884      -1.05478810
H        0.30816892       0.90327971      -0.39571676
H        1.97699327       0.82954178       1.22598297
H        2.04142709      -0.75412960       0.89473350
H        2.94944682       0.58477282       0.34090478
14
Properties=species:S:1:pos:R:3 energy=-4305.138647313924 name=nbu_straight smiles=CCCC config_type=start_23 pbc="F F F"
C       -1.79073666      -0.05052730      -0.44999605
C       -0.35131564       0.05464346       1.01372208
C        0.83615762      -0.39390172       0.34832521
C        1.73596263       0.10194212       0.43245869
H       -2.58370972      -0.70581907       0.97244236
H       -1.24236683       1.45103579      -0.50578535
H       -1.84410886      -0.66259678      -0.93502420
H       -0.91565250       0.01502938       1.86946622
H       -0.72084504      -1.06407936       1.31865161
H        0.54082551      -0.16170649      -1.01545694
H        0.66854728       1.43121858      -0.50357556
H        1.44921009       0.45292822       2.03091642
H        2.16343934      -0.76904704       0.73562453
H        2.67615935       0.92951808       0.36345757
14
Properties=species:S:1:pos:R:3 energy=-4305.138647313924 name=nbu_straight smiles=CCCC config_type=start_24 pbc="F F F"
C       -1.74892844      -0.14437578      -0.29019323
C       -0.68676629      -0.25652643      -0.15228515
C        1.14008364      -0.37197259      -0.24168835
C        2.11305016      -0.33199127       0.85170138
H       -3.27442437      -0.63681447       0.37521053
H       -2.04595869       0.66937719      -0.69869790
H       -2.26394216      -1.02419614      -0.82135364
H       -0.62144194       0.68899087       1.72636217
H       -0.25980107      -0.93036320       1.08680891
H        0.83769544      -0.62548045      -1.09646373
H        0.81860352       0.63049425      -0.16459692
H        1.24364272       0.58563712       1.78753719
H        1.68606015      -0.71817986       0.96013397
H        2.41661487       0.08380957       0.10474169
