14
Properties=species:S:1:pos:R:3 energy=-4305.138647313924 name=nbu_straight smiles=CCCC config_type=start_0 pbc="F F F"
C       -2.52444990       0.64195507       1.90741291
C        0.23742166      -2.13109290       0.55589403
C       -0.62685022      -0.11126387      -1.13343191
C        3.03902160       0.14899167       0.79116809
H       -2.19775233       1.21806873       1.94369089
H       -1.92749787       0.79499918      -0.86871161
H       -2.14868090      -0.54464055      -2.33525216
H       -2.32643126       1.05592060       0.69456162
H       -0.75178279      -0.86017969       1.56042536
H        0.71039652      -1.61146883       1.26443308
H       -0.68659129       2.83869680      -0.07444178
H        2.52924258       1.94009316       2.22216621
H        3.07632415      -1.78599684       0.86662262
H        1.99590937      -0.54091691      -1.62000693
14
Properties=species:S:1:pos:R:3 energy=-4305.138647313924 name=nbu_straight smiles=CCCC config_type=start_1 pbc="F F F"
C       -3.08288720      -0.77002413       0.93638299
C       -1.27894018       1.47386897      -0.68934216
C       -0.51032535      -0.42819480      -1.37552648
C        0.90437137      -0.89349553       0.33375640
H       -3.61341018      -1.98366281       0.54672241
H       -3.24174042       1.83224158      -1.14940904
H       -1.73911320      -1.10331392      -0.92386539
H       -0.44328383       2.26312695       2.40244516
H       -2.03208341      -2.53784491       2.25976739
H        0.60745070       0.88110874       0.07445666
H        1.60145023      -0.06188712      -0.57509011
H        0.82071106       2.93748372       3.74057772
H        4.27076489      -1.60411605       0.99491919
H        4.62319587      -0.62841441      -0.02422420
14
Properties=species:S:1:pos:R:3 energy=-4305.138647313924 name=nbu_straight smiles=CCCC config_type=start_2 pbc="F F F"
C       -0.39377376      -0.16316202      -1.50270669
C       -0.87221653       0.61535602      -0.72693053
C       -1.04625395       0.46552887      -0.86529092
C        3.54665762       0.35661101       2.44726763
H       -1.81737264       0.66264574       0.21675253
H       -3.08482703       2.76208232       0.84512738
H       -1.30584336      -1.75302870      -0.19357948
H       -0.49184699       0.60545790       2.45471315
H       -0.10822582      -2.72092175       2.60720997
H        0.34198427       0.51116599       0.13911456
H       -0.25824939       1.23090779      -0.35060713
H        2.81833648       1.92771226       1.89356875
H        2.10573046      -0.00684554       1.35233168
H        3.28358859       0.15840206       1.75717099
14
Properties=species:S:1:pos:R:3 energy=-4305.138647313924 name=nbu_straight smiles=CCCC config_type=start_3 pbc="F F F"
C       -2.44858894      -0.14818135       0.67298518
C        0.27361712       0.83192472       0.85629524
C       -0.68473053      -1.04590986      -0.61133794
C        2.91412067      -0.38771541       1.16393568
H       -3.13399532       0.70433986      -0.60945403
H       -0.94772892       0.53162586      -1.10502851
H       -1.35934647      -1.70223150      -0.60759952
H        1.88099565       1.70310287       1.68536897
H        0.49455459      -2.00807961       1.65387250
H        1.23116482      -0.53280047      -0.21258522
H        0.10757549       0.35223477      -0.57604645
H        2.49802062      -0.03329635       2.24106088
H        2.06375413      -1.71899085      -0.38872705
H        3.35832683       0.85069730       1.24574681
14
Properties=species:S:1:pos:R:3 energy=-4305.138647313924 name=nbu_straight smiles=CCCC config_type=start_4 pbc="F F F"
C       -1.95716824      -0.03216698       0.14717328
C       -0.21743179      -1.56761958      -0.89051528
C        1.18757788       1.13324160       0.36574847
C        2.53981071       1.30918516       1.88197082
H       -2.01102597       1.23961599       1.41647907
H       -1.77373749       0.89485426       0.27394261
H       -1.68999846      -1.26590476      -1.35703907
H        0.23471919       2.23039114       3.34592975
H       -1.17831108      -1.84018620       0.53041694
H        1.11619450      -1.72701034      -0.03916172
H       -0.14055627       0.83565314      -1.38396191
H        3.87189208      -0.09743225       1.67093628
H        1.95097634      -1.66023153       1.45084225
H        4.42877264       0.36008759       1.85350175
14
Properties=species:S:1:pos:R:3 energy=-4305.138647313924 name=nbu_straight smiles=CCCC config_type=start_5 pbc="F F F"
C       -2.77214215      -0.04117060      -1.23742489
C        0.15130579      -0.23085938       1.47501314
C        0.06935875      -0.04659697       0.49852547
C        3.17935870       1.04509551       0.41175382
H       -1.90400815      -1.45205795       1.03827206
H       -3.03910180      -0.64828427      -1.16443861
H       -0.41416172      -1.27429635      -2.44961249
H       -0.58630328       0.14994105       0.78141074
H        0.09013378      -1.70430364       1.80862667
H        0.32121945      -2.48174701      -0.82774726
H       -0.88094939       2.81008640      -0.73907300
H        4.36976932       0.33240278       2.18857117
H        1.37323560      -3.07788156       2.69550767
H        2.37750270       0.47563593       0.63054011
14
Properties=species:S:1:pos:R:3 energy=-4305.138647313924 name=nbu_straight smiles=CCCC config_type=start_6 pbc="F F F"
C       -2.90144331      -0.11497452      -2.10362332
C        0.80466744      -0.59479957       0.35007848
C       -0.49050655      -1.13351502       0.93929478
C        2.96204282       1.12117831       0.41439942
H       -2.84714581       0.67381440       0.31229113
H       -1.54933203      -0.15460243      -1.89551079
H       -2.41383919      -0.73718958      -1.04175949
H       -0.96947935       2.72999715       1.37940468
H       -1.02686074      -2.90247285       0.62679984
H        1.42503393      -0.62594638      -1.58782261
H        1.69388530       2.57605847       0.31552883
H        1.29329369       1.00866061       2.26033666
H        1.64140000      -0.36621895       0.39875345
H        0.73375290      -0.47528879      -0.05716349
14
Properties=species:S:1:pos:R:3 energy=-4305.138647313924 name=nbu_straight smiles=CCCC config_type=start_7 pbc="F F F"
C       -1.62520019      -0.52709885      -0.29506081
C        0.42049868       1.00701298       1.30320696
C       -0.25840197       0.42208102       0.06506754
C        1.42161271       1.23418609       0.08323491
H       -2.75721498      -1.40300647       1.44729161
H       -1.63848458       0.47807549      -1.27141311
H       -1.60535546      -1.46055842      -0.89860548
H       -2.29210822      -0.71337554       3.75979575
H        0.08387616      -2.06902044       1.40124681
H        2.22608107       1.07316697       0.88258332
H        1.57264237       1.23273108      -1.21944069
H        2.94590342       1.31707969       1.97684781
H        3.45689653       0.34061928       0.48219578
H        2.67294052      -1.69331821      -1.21020552
14
Properties=species:S:1:pos:R:3 energy=-4305.138647313924 name=nbu_straight smiles=CCCC config_type=start_8 pbc="F F F"
C       -1.99527008       0.80972831       0.12879107
C       -1.73204107       0.48044935      -0.41418627
C        1.40732904      -0.67883555      -0.13478948
C        1.10163626      -1.15558989       0.06088204
H       -2.89531766      -0.03737177       1.19067162
H       -2.37412838       0.96259964       0.39969169
H       -3.95988348       0.54542182      -1.84513243
H        0.23976746      -0.51781481       0.43419334
H       -0.99793604      -2.66931760       2.91660525
H        0.91336045       0.23101570      -0.76895173
H        0.88468607       1.80831294       0.23777372
H        3.52985817       1.21036260       1.53907203
H        1.82574621      -1.44374620       1.67712266
H        2.78643642       0.94297834       0.36148903
14
Properties=species:S:1:pos:R:3 energy=-4305.138647313924 name=nbu_straight smiles=CCCC config_type=start_9 pbc="F F F"
C       -1.87997311      -0.94515823      -0.76176764
C       -0.79326071       1.68082214       2.45680391
C        0.13312236       1.20567819      -1.98598686
C        1.60691467       0.75135422       0.12668066
H       -2.13653621       0.44589771       0.10353554
H       -3.30155436       0.86181144      -0.45589273
H       -1.60661385      -0.72970801      -1.52903526
H        1.81770351       0.92089946       0.32426124
H       -1.23737074      -0.29162882       1.65603946
H        1.00921025      -1.22087555       0.96675167
H        1.44033825       1.54750584      -0.89026778
H        3.78408326       1.25672960       2.24075000
H        1.97828515      -0.61745940       0.85496859
H        2.79237964       0.60749532      -0.09927108
14
Properties=species:S:1:pos:R:3 energy=-4305.138647313924 name=nbu_straight smiles=CCCC config_type=start_10 pbc="F F F"
C       -1.84465121      -1.27574517       1.45760098
C       -1.75893051      -1.15481851      -0.01642579
C        1.42583968       0.40959226       0.61222912
C        2.91204611      -0.36255261      -0.27246438
H       -2.46334659       0.17703487       1.57854471
H       -2.54367489      -0.52360052      -1.74344700
H       -3.13550376      -2.15666291      -1.21211725
H       -2.05099580       0.00648243       0.30751117
H       -0.12694480      -0.19834056       0.13872788
H        1.06773395      -1.58761493      -0.82581247
H       -0.33006454       2.17805205       1.18764843
H        2.29889538       1.27845185       1.68567753
H        0.91225306      -1.11444651       0.68513677
H        2.51678583       1.78322741       0.63958749
14
Properties=species:S:1:pos:R:3 energy=-4305.138647313924 name=nbu_straight smiles=CCCC config_type=start_11 pbc="F F F"
C        0.07164803       0.29917980       0.96661424
C       -0.57864829       0.92605700       2.10735228
C        0.05074873      -0.71536390       0.12269043
C        1.98469298       0.18691256       1.25092681
H       -2.61912532      -0.78333775      -0.65464739
H       -0.93457578      -0.03406403      -2.02982806
H       -0.98551752      -1.54634255      -0.95112582
H        1.08765371       0.51862319       3.22550034
H       -0.36557795      -1.23532526       1.43556360
H       -0.22530674      -0.61944829      -0.33997466
H        0.76259509      -0.04033908      -2.25577556
H        2.46611858       1.25162715       3.13057523
H        1.85239439      -1.87047296      -0.36044827
H        4.54104110       0.46408693       0.55242809
14
Properties=species:S:1:pos:R:3 energy=-4305.138647313924 name=nbu_straight smiles=CCCC config_type=start_12 pbc="F F F"
C       -0.52150489      -2.36964789       0.01738968
C       -1.04879933       0.70396541       1.29681304
C       -0.06980501      -0.01903571       1.83847711
C        1.51955080       1.26468216       1.81532437
H       -4.25826299       0.05962674       0.35049157
H       -4.52469008      -1.66830635      -1.75842813
H       -2.93092207       0.54688875      -1.38852855
H       -0.46456679       1.31797911       0.80067284
H       -1.17518964      -2.56440643       1.11233730
H        0.98505398      -1.03352698       1.26995883
H        0.98680280      -0.62998626      -0.24836389
H        2.12593148       0.43206452       1.86673186
H        1.04180540      -2.81737430       1.50621329
H        1.18056483      -0.27215479       0.30613986
14
Properties=species:S:1:pos:R:3 energy=-4305.138647313924 name=nbu_straight smiles=CCCC config_type=start_13 pbc="F F F"
C       -0.41421857      -0.11698519      -1.95349889
C       -0.10829364      -0.79756025       1.70663974
C       -0.17491719      -1.22276903       1.25432704
C        2.79164595       0.57729757       0.54009451
H       -3.94230160       1.09825617      -0.50717258
H       -2.05613496       1.45126582      -0.16839441
H       -2.51084118      -0.56933031      -2.49048738
H       -0.19686934      -0.44234674       1.48735376
H       -0.43294920      -2.14083035       1.08276962
H        1.27378938      -0.94812352      -0.30583818
H       -0.25630198       0.52904355      -0.77834272
H        3.75569498       0.88075270       2.41511272
H        2.92154153      -0.09659494       1.97619733
H        2.98662584       0.72433070       0.31870588
14
Properties=species:S:1:pos:R:3 energy=-4305.138647313924 name=nbu_straight smiles=CCCC config_type=start_14 pbc="F F F"
C       -3.77210878      -1.36976299      -0.18390723
C        0.55132769       1.62095807       1.13954427
C        1.52900204      -0.21650234      -2.30964681
C        0.41388436      -0.37406296       0.36650795
H       -1.46595302      -0.51930331       1.27312212
H       -2.37722699       1.77609132      -0.23789215
H       -2.49193882      -0.64697941      -2.88216906
H       -0.24174806       1.73024783       1.79710184
H       -0.54586179      -1.76696350       2.31019598
H        1.31572232      -0.71930969      -0.08076929
H       -0.55675903       0.58864332      -0.96033579
H        0.84688853       0.61578229       1.14467444
H        2.04467828      -0.80913307      -0.10370802
H        3.45536519      -1.72475217      -0.51602802
14
Properties=species:S:1:pos:R:3 energy=-4305.138647313924 name=nbu_straight smiles=CCCC config_type=start_15 pbc="F F F"
C       -1.17967155       1.18981471       1.12009904
C        0.32040883       0.10271787       1.04476262
C        1.43616581       0.09065098       0.62632499
C        1.92048920      -1.89502492       0.20022000
H       -1.73752419       0.97292391       1.77369333
H       -1.11988027      -1.22246587       1.33136847
H       -2.26533073      -1.39270194      -2.09159976
H       -2.67076832       2.64625269       0.70556069
H       -2.60568214      -1.05245369       1.54174979
H       -0.88341438      -1.87331893      -2.18939704
H        0.52154606       1.67044626      -0.53626954
H        1.40060958       1.61523217       2.38977153
H        1.15883261      -1.97136859       1.10854471
H        2.85511583       0.49523022       1.26862361
14
Properties=species:S:1:pos:R:3 energy=-4305.138647313924 name=nbu_straight smiles=CCCC config_type=start_16 pbc="F F F"
C       -3.54032162       0.10299838      -0.54221101
C       -1.10186348       0.73565432       0.14424686
C        1.25077966      -0.87389715      -0.85092537
C        1.61526393       0.70602322       1.03958695
H       -2.90359595       0.35198357      -0.99792290
H       -1.43433359       0.01714794      -0.01199744
H       -3.39750790      -1.59839152      -1.78963268
H        1.30183515       1.37306865       1.96543619
H       -1.00890212      -0.36581597       2.18354978
H        0.14982065      -0.58264523      -1.35984002
H        1.32820905       1.56850425      -0.75900456
H        2.35640984       1.18734881       0.60782561
H        2.09757932      -0.81500130       0.57655949
H        0.27004817      -0.16370402       0.42683095
14
Properties=species:S:1:pos:R:3 energy=-4305.138647313924 name=nbu_straight smiles=CCCC config_type=start_17 pbc="F F F"
C       -2.57114428       1.13057418       0.53344408
C       -0.76448108      -0.29949729       0.02124812
C       -0.25592660      -0.43020523      -0.89407897
C        2.27666888      -0.22031763      -0.18357054
H       -3.82255585       0.30723512      -0.39385135
H       -0.94589832      -0.36198317      -0.56616506
H       -1.15049275      -1.81586674      -2.67984776
H        0.56515495       1.12447342       2.08809479
H       -2.15924632      -1.54364712      -1.21349852
H        1.37079170      -0.55345504       0.72487965
H        0.36872236       2.16456004       0.27736824
H        2.50831442       1.85216692       0.73474953
H        2.75475027      -1.78695249       0.25309248
H        4.79915203       1.45662462       0.17690875
14
Properties=species:S:1:pos:R:3 energy=-4305.138647313924 name=nbu_straight smiles=CCCC config_type=start_18 pbc="F F F"
C       -0.20443721      -1.19026561      -0.98115520
C       -0.83782532      -0.13415164       1.86520520
C       -0.82291928       0.71961173      -1.04563914
C        0.90831316       0.61462724       1.02125525
H       -1.12707351      -0.44509148      -0.18030756
H       -1.16046259       1.40829019      -1.01143399
H       -1.43812341      -1.05898512       0.93605008
H       -2.48183294      -0.57860335       1.72697564
H        0.25131473      -1.51770947       1.54024352
H        1.03919904      -2.01020308       0.08918641
H       -0.32426588       1.28104312       0.20183989
H        2.36980224       1.49179702       1.75553033
H        1.30177911      -1.02994670       1.45420646
H        2.35171863       0.84426881      -0.17154275
14
Properties=species:S:1:pos:R:3 energy=-4305.138647313924 name=nbu_straight smiles=CCCC config_type=start_19 pbc="F F F"
C       -0.42272608       2.01906363       0.98549358
C        0.21345907       0.00807177      -0.49755730
C        1.67902268       1.35453457      -0.53587934
C        2.11030787      -2.01161871       0.57415230
H       -3.05564600       0.30745043       1.32333710
H       -2.21804981      -0.58911738      -1.37989515
H       -0.65966743       0.00092243      -1.39326231
H       -0.87494306       1.52050741       1.27556275
H        0.01909852      -0.03987842       1.16275139
H       -0.06827245      -1.67093891      -1.97062029
H       -1.26650310       0.26277160       0.50971469
H        2.10634027       1.24018153       2.04825460
H        2.41116343       0.35642298       1.30849605
H       -1.10375092       2.12969349      -0.73664004
14
Properties=species:S:1:pos:R:3 energy=-4305.138647313924 name=nbu_straight smiles=CCCC config_type=start_20 pbc="F F F"
C       -0.91967816      -2.03794291      -1.54341271
C       -0.03731618       0.11855293       0.62106994
C        1.51105372      -1.15434036       1.43142549
C        1.24740870      -0.27524925      -0.04012499
H       -4.05551262      -0.99889946       1.45307251
H        0.04649189       1.80692209      -1.49255472
H       -2.36450774       0.92204647      -0.73796572
H       -1.52051901       0.85526591       2.36989554
H       -0.00276491      -2.71313537       0.43851613
H       -0.96089325      -0.94983223       0.14367288
H        0.89383230       1.13174352      -0.84034785
H        2.25239670       1.34134099       0.34223569
H        2.64409087      -0.76642665       0.57304647
H        3.89690380       0.82081224       1.33782541
14
Properties=species:S:1:pos:R:3 energy=-4305.138647313924 name=nbu_straight smiles=CCCC config_type=start_21 pbc="F F F"
C       -1.17062776       1.56881763      -2.78082398
C       -0.43191242      -0.08926330       2.35223150
C       -0.08009278      -0.17456217       0.19417457
C        2.88287790      -1.23354615       1.44791783
H       -0.77642338      -1.81760061       2.47025077
H       -2.88209142       0.92420738      -2.15869897
H       -2.31581971      -0.44310671       0.18972553
H       -2.11196078       1.95580306       0.97314435
H        0.00521401      -1.42102003       0.89365960
H        1.54844488      -0.88125081      -1.41810000
H       -0.28144359       0.44886002      -0.07607285
H        2.30692955       0.91516293       0.25663689
H        2.04008096      -0.32317367       0.01773267
H        3.26206408       1.26817308       0.58709892
14
Properties=species:S:1:pos:R:3 energy=-4305.138647313924 name=nbu_straight smiles=CCCC config_type=start_22 pbc="F F F"
C       -1.56060852       0.24685534      -1.08323951
C        0.31749320       0.68706188       1.74460395
C        1.26430007      -1.54326141       1.30883536
C        1.34357909       0.19998439      -0.46177104
H       -2.07732440      -1.39667957       2.30408354
H        0.58898291       2.92202464      -0.20695150
H       -1.89852654      -0.08255059      -0.77392902
H       -1.30295667      -1.12246741       2.64740240
H       -1.12874680      -0.71050087       1.66520670
H        0.01951338       0.90775704      -1.28699613
H        0.91981759       2.20865625      -0.43560219
H        0.54765229      -0.34021561       2.93974842
H        2.44678846      -0.37289848      -0.51263056
H        2.35110582       2.41732394       0.66227492
14
Properties=species:S:1:pos:R:3 energy=-4305.138647313924 name=nbu_straight smiles=CCCC config_type=start_23 pbc="F F F"
C       -1.42124779      -0.06597292      -0.55056345
C       -0.80067562      -0.35017109      -2.14208683
C        2.27738679      -1.47016430      -0.65787649
C        2.60053753      -1.24646022       0.93570459
H       -4.37970656      -1.16666424       0.31331075
H       -2.08965663       0.31649597      -0.84999335
H       -3.29797086      -1.28788179      -0.39502712
H       -0.32225481       1.12407091       2.17038889
H        0.40806644      -0.26478033       0.89239770
H        1.00907982      -0.63815618      -1.55701878
H        1.42000507      -0.46042485       0.69432658
H       -0.13757228       0.10214741       2.12848430
H        0.85552449      -0.20334120       0.23573423
H        1.48595757      -0.40170442      -0.20011138
14
Properties=species:S:1:pos:R:3 energy=-4305.138647313924 name=nbu_straight smiles=CCCC config_type=start_24 pbc="F F F"
C       -0.78129152      -0.50025482       2.11013785
C       -2.48339714      -1.75047346       1.79043182
C        1.86213940      -0.19395434      -1.02638560
C        2.10650355       1.68335941      -1.49543657
H       -1.76406878       1.93086589       0.17866628
H       -2.68088156       1.63548732      -1.06464916
H       -1.83334907       0.39096374      -1.09468520
H        0.66136726       0.93162876       1.15707983
H       -1.63910825      -2.13078264       1.05039075
H        1.93967040      -0.15347359      -0.81831289
H        1.24512079       0.70196456      -0.89767749
H        1.58477157       0.68744751       1.93276910
H        3.72107015      -0.53441601       2.17562672
H        2.50384564       0.41231149       1.14254641
