14
Properties=species:S:1:pos:R:3 energy=-4305.117114564319 name=nbu_bent smiles=CCCC config_type=start_0 pbc="F F F"
C       -1.56436874       0.37141406       0.02508975
C       -0.50244624      -0.48569048      -0.68568005
C        0.72515134      -0.75500994       0.14109076
C        1.56694537       0.47859597       0.47852917
H       -1.16716081       1.40048172       0.22623279
H       -1.87141344      -0.06017004       0.97326633
H       -2.46365645       0.50449765      -0.59392907
H       -0.22230969      -0.00462824      -1.65219989
H       -0.98874111      -1.45862467      -0.96229341
H        0.44910055      -1.27597317       1.05991375
H        1.36692300      -1.49723057      -0.42234022
H        2.49281319       0.18373671       1.01912580
H        1.00502895       1.19459377       1.07008778
H        1.88078186       1.01379995      -0.46114288
14
Properties=species:S:1:pos:R:3 energy=-4305.117114564319 name=nbu_bent smiles=CCCC config_type=start_1 pbc="F F F"
C       -1.55675288       0.39232371       0.03103124
C       -0.52355611      -0.49093863      -0.69686347
C        0.75310826      -0.75632449       0.14843157
C        1.57824159       0.46963677       0.45721908
H       -1.18329255       1.39017287       0.24436380
H       -1.89560138      -0.06791849       0.98271201
H       -2.46772116       0.50320414      -0.60177697
H       -0.25670877      -0.01873069      -1.64059812
H       -1.00237775      -1.43490989      -0.96125899
H        0.45541305      -1.26123552       1.08047920
H        1.35681860      -1.47355979      -0.41744627
H        2.49977198       0.19353489       0.99630461
H        1.01240828       1.19793842       1.10790434
H        1.89201887       1.01122359      -0.44960069
14
Properties=species:S:1:pos:R:3 energy=-4305.117114564319 name=nbu_bent smiles=CCCC config_type=start_2 pbc="F F F"
C       -1.55314902       0.37718315       0.02798619
C       -0.52427147      -0.49621280      -0.70408712
C        0.73421545      -0.78440421       0.14364387
C        1.57951649       0.47878756       0.45270536
H       -1.16802131       1.39244819       0.24725972
H       -1.87365961      -0.06285239       1.00821657
H       -2.46693659       0.51271524      -0.59976703
H       -0.24508145       0.01094067      -1.65121019
H       -0.99651734      -1.44204437      -0.97277684
H        0.46248354      -1.25827469       1.07498751
H        1.37713372      -1.49555061      -0.41771960
H        2.48455840       0.20940255       1.00598623
H        1.01821852       1.17120398       1.09067700
H        1.85867268       1.01902555      -0.45048910
14
Properties=species:S:1:pos:R:3 energy=-4305.117114564319 name=nbu_bent smiles=CCCC config_type=start_3 pbc="F F F"
C       -1.56197993       0.38375138       0.04434839
C       -0.52008756      -0.47138076      -0.68677826
C        0.75481572      -0.77647786       0.13237845
C        1.56181210       0.46222134       0.45891726
H       -1.15880818       1.39389060       0.25052067
H       -1.86188666      -0.05462836       0.98198984
H       -2.48500102       0.52810039      -0.59858597
H       -0.21843449       0.00405483      -1.64813582
H       -0.99439856      -1.44627929      -0.96063461
H        0.44623560      -1.27484285       1.07345136
H        1.36518532      -1.49738868      -0.41462732
H        2.46455789       0.20001129       1.02012939
H        1.01979187       1.18268714       1.07715398
H        1.88275949       1.01745561      -0.46961151
14
Properties=species:S:1:pos:R:3 energy=-4305.117114564319 name=nbu_bent smiles=CCCC config_type=start_4 pbc="F F F"
C       -1.55522208       0.38810231       0.01322963
C       -0.53275148      -0.49292858      -0.69201408
C        0.74441626      -0.76184164       0.14488939
C        1.55551310       0.47536894       0.44770699
H       -1.16528879       1.39949248       0.23517933
H       -1.88527814      -0.06190744       0.98359174
H       -2.48291481       0.51906924      -0.60042640
H       -0.24291726      -0.00416178      -1.66232347
H       -0.99516944      -1.44519178      -0.97369116
H        0.44795565      -1.28923003       1.07256715
H        1.36083078      -1.49243473      -0.42537631
H        2.49602801       0.19788972       1.01265533
H        1.00727282       1.18156252       1.08636320
H        1.85737070       1.02227599      -0.45830708
14
Properties=species:S:1:pos:R:3 energy=-4305.117114564319 name=nbu_bent smiles=CCCC config_type=start_5 pbc="F F F"
C       -1.57106087       0.39725832       0.03955619
C       -0.51823230      -0.50437900      -0.69376093
C        0.72438782      -0.77007845       0.12186090
C        1.58141595       0.47528468       0.46126668
H       -1.16619720       1.41400305       0.25429852
H       -1.87309267      -0.06403313       0.97701645
H       -2.47510194       0.51923347      -0.61256787
H       -0.25196766      -0.00191107      -1.65713003
H       -0.99664553      -1.44641067      -0.96192703
H        0.44874052      -1.28715721       1.09537516
H        1.35544549      -1.47129134      -0.41755035
H        2.50012551       0.21587046       1.01113649
H        1.02204720       1.18067928       1.08874332
H        1.86128441       0.99991696      -0.47890600
14
Properties=species:S:1:pos:R:3 energy=-4305.117114564319 name=nbu_bent smiles=CCCC config_type=start_6 pbc="F F F"
C       -1.57664524       0.38313853       0.02984589
C       -0.53339592      -0.46832938      -0.70621329
C        0.72555307      -0.77324776       0.11943996
C        1.56006944       0.46485980       0.45669256
H       -1.18035378       1.38198573       0.24032883
H       -1.88623509      -0.05366070       0.97420948
H       -2.47100626       0.51364674      -0.59845400
H       -0.23313619       0.01016099      -1.64005120
H       -1.00944853      -1.46318732      -0.95493361
H        0.44771106      -1.26223143       1.08347540
H        1.37832590      -1.50029718      -0.42255683
H        2.48304019       0.22584437       1.02632061
H        1.03399161       1.18249809       1.09002628
H        1.88755728       0.99904199      -0.46294817
14
Properties=species:S:1:pos:R:3 energy=-4305.117114564319 name=nbu_bent smiles=CCCC config_type=start_7 pbc="F F F"
C       -1.54975411       0.38920715       0.00545499
C       -0.52932869      -0.47691451      -0.70658918
C        0.72019378      -0.76431052       0.12454231
C        1.58649231       0.47736087       0.47782768
H       -1.16239341       1.40844882       0.23702914
H       -1.88466596      -0.04436230       0.99415484
H       -2.46667356       0.50714959      -0.59115114
H       -0.23362182      -0.00641570      -1.63952852
H       -0.99020996      -1.46501809      -0.95145918
H        0.44505639      -1.26593086       1.08412198
H        1.35972891      -1.48736923      -0.42031200
H        2.50301644       0.21574665       1.00785052
H        1.01234126       1.19847079       1.09360041
H        1.87416121       1.00691015      -0.44513422
14
Properties=species:S:1:pos:R:3 energy=-4305.117114564319 name=nbu_bent smiles=CCCC config_type=start_8 pbc="F F F"
C       -1.57030226       0.38935696       0.02721191
C       -0.51787035      -0.47474882      -0.69075692
C        0.72380901      -0.77942491       0.12708184
C        1.58016694       0.46991761       0.46499436
H       -1.17555963       1.40886576       0.22876707
H       -1.86329498      -0.06666686       0.97465328
H       -2.46720859       0.50765757      -0.59529135
H       -0.20989339       0.00456075      -1.64722196
H       -0.98418215      -1.45788967      -0.96099255
H        0.45394820      -1.27637052       1.08060498
H        1.36338715      -1.49615596      -0.42256639
H        2.49981329       0.19613657       1.01132544
H        1.01192150       1.18134934       1.07618982
H        1.87490859       1.01383310      -0.45024846
14
Properties=species:S:1:pos:R:3 energy=-4305.117114564319 name=nbu_bent smiles=CCCC config_type=start_9 pbc="F F F"
C       -1.56538805       0.39051710       0.02195379
C       -0.52278084      -0.49874427      -0.70822502
C        0.74253210      -0.75763339       0.13685270
C        1.57642384       0.48688661       0.47217471
H       -1.16432994       1.41421852       0.24902640
H       -1.87155506      -0.06303458       0.98844300
H       -2.47051511       0.51202083      -0.60278574
H       -0.22635616       0.00983363      -1.63061635
H       -1.00091081      -1.45621073      -0.97222711
H        0.45279849      -1.28831262       1.08233921
H        1.36090584      -1.49132178      -0.43064555
H        2.51355200       0.19549521       1.00562419
H        1.01079372       1.18193693       1.09458551
H        1.88561305       1.00892701      -0.44417091
14
Properties=species:S:1:pos:R:3 energy=-4305.117114564319 name=nbu_bent smiles=CCCC config_type=start_10 pbc="F F F"
C       -1.57353779       0.39042706       0.00810781
C       -0.51909346      -0.48537666      -0.68456974
C        0.73134991      -0.76943178       0.13818047
C        1.58281932       0.48424572       0.45747254
H       -1.16325976       1.38730178       0.24524433
H       -1.88420871      -0.07846596       0.97405918
H       -2.45775675       0.51193692      -0.61371147
H       -0.23456638      -0.01097087      -1.65626154
H       -0.98822636      -1.45485191      -0.95944501
H        0.44484874      -1.29585999       1.07445336
H        1.35350191      -1.47157745      -0.42419666
H        2.51853077       0.19979356       1.01080054
H        1.00501632       1.16776043       1.10703217
H        1.86510035       1.01008249      -0.45640053
14
Properties=species:S:1:pos:R:3 energy=-4305.117114564319 name=nbu_bent smiles=CCCC config_type=start_11 pbc="F F F"
C       -1.57483080       0.38968902      -0.00055417
C       -0.51255985      -0.48901607      -0.69581909
C        0.72575125      -0.78030096       0.14258817
C        1.58064616       0.48500654       0.45749899
H       -1.17269114       1.40856050       0.23798452
H       -1.86931101      -0.07352914       0.96674846
H       -2.47775352       0.51730798      -0.59963294
H       -0.23839814       0.01482969      -1.65028160
H       -0.99939631      -1.46683360      -0.97126328
H        0.45588689      -1.27730198       1.06685260
H        1.37925025      -1.47391773      -0.41365064
H        2.48776602       0.20655614       1.01151820
H        1.00769796       1.19487706       1.08406462
H        1.84866285       1.00057324      -0.46327756
14
Properties=species:S:1:pos:R:3 energy=-4305.117114564319 name=nbu_bent smiles=CCCC config_type=start_12 pbc="F F F"
C       -1.56206837       0.38556778       0.01753145
C       -0.51640153      -0.47299794      -0.68628780
C        0.72807230      -0.76474500       0.13384590
C        1.56524186       0.48613662       0.45418735
H       -1.17179183       1.38779230       0.24933453
H       -1.87020254      -0.06720237       0.97298944
H       -2.46966868       0.51007430      -0.59820140
H       -0.25162443      -0.01960404      -1.62647769
H       -0.98828894      -1.45849907      -0.96351881
H        0.46389736      -1.26031085       1.09155666
H        1.37803782      -1.48735100      -0.42900034
H        2.50429211       0.20964033       1.00868331
H        1.02585293       1.20194544       1.08489905
H        1.86805473       0.98839295      -0.47480799
14
Properties=species:S:1:pos:R:3 energy=-4305.117114564319 name=nbu_bent smiles=CCCC config_type=start_13 pbc="F F F"
C       -1.56576907       0.39893605       0.02176997
C       -0.53792693      -0.47826358      -0.70346173
C        0.74472961      -0.77575417       0.13184733
C        1.56204209       0.46223886       0.45396382
H       -1.17317286       1.40144864       0.24676833
H       -1.87755897      -0.06235712       0.98970049
H       -2.49321396       0.53013410      -0.60766667
H       -0.22630568      -0.01764843      -1.65973372
H       -0.99910706      -1.46450205      -0.94836523
H        0.45077015      -1.26873236       1.07504131
H        1.37115826      -1.48159518      -0.41442819
H        2.51013166       0.20857316       1.00430555
H        1.00954142       1.18410179       1.09684832
H        1.86918968       1.01475591      -0.45909104
14
Properties=species:S:1:pos:R:3 energy=-4305.117114564319 name=nbu_bent smiles=CCCC config_type=start_14 pbc="F F F"
C       -1.56461610       0.38138719       0.01286438
C       -0.52853913      -0.46625985      -0.67475183
C        0.73198754      -0.75690903       0.11333535
C        1.56709488       0.48130830       0.45462181
H       -1.16558504       1.40628134       0.23589697
H       -1.88683323      -0.06336501       0.98114464
H       -2.46968127       0.51738280      -0.60450570
H       -0.21052631      -0.00326129      -1.66083304
H       -1.00150141      -1.44072516      -0.96097089
H        0.45172865      -1.28325128       1.09239835
H        1.37671478      -1.48420325      -0.42570861
H        2.51267391       0.20903683       1.01132233
H        1.01106681       1.19236466       1.08862678
H        1.86924912       1.01140108      -0.46369864
14
Properties=species:S:1:pos:R:3 energy=-4305.117114564319 name=nbu_bent smiles=CCCC config_type=start_15 pbc="F F F"
C       -1.56426288       0.37808132       0.03505807
C       -0.53819583      -0.49461626      -0.69948413
C        0.74491472      -0.76486989       0.13931751
C        1.58014619       0.47016923       0.45063036
H       -1.16885315       1.40359271       0.25064706
H       -1.87925444      -0.07721913       0.96826910
H       -2.48497017       0.50311325      -0.60133652
H       -0.24921331      -0.01240546      -1.66100054
H       -0.99039715      -1.43979228      -0.97614400
H        0.45231389      -1.28691867       1.07447271
H        1.35901075      -1.47789779      -0.40492945
H        2.49782203       0.20925405       1.00577161
H        1.00040649       1.18739478       1.08692846
H        1.86649318       1.02315840      -0.45631006
14
Properties=species:S:1:pos:R:3 energy=-4305.117114564319 name=nbu_bent smiles=CCCC config_type=start_16 pbc="F F F"
C       -1.54509989       0.39383057       0.03014820
C       -0.52639300      -0.47380750      -0.67824635
C        0.73116381      -0.77611945       0.13442212
C        1.57087266       0.47566389       0.46586427
H       -1.17041093       1.39398898       0.22831514
H       -1.86316345      -0.07232376       0.96540529
H       -2.46347031       0.50921645      -0.59872661
H       -0.21782681      -0.00728405      -1.63182065
H       -0.99278348      -1.45016212      -0.96317564
H        0.43938348      -1.27723700       1.07933108
H        1.36993735      -1.50008170      -0.43936369
H        2.49949427       0.20898580       1.02022058
H        1.00980790       1.17983452       1.07647261
H        1.88673573       1.00996700      -0.45718165
14
Properties=species:S:1:pos:R:3 energy=-4305.117114564319 name=nbu_bent smiles=CCCC config_type=start_17 pbc="F F F"
C       -1.55103142       0.36714229       0.02065596
C       -0.53109451      -0.47602842      -0.68635174
C        0.72995827      -0.76915617       0.15157999
C        1.56622124       0.48644158       0.47150824
H       -1.18680231       1.40241863       0.23836653
H       -1.89906459      -0.08866618       0.96811929
H       -2.48292435       0.53014877      -0.60310064
H       -0.23334902       0.00070951      -1.65606892
H       -1.00087960      -1.46345293      -0.96640791
H        0.45148709      -1.28137779       1.09543042
H        1.37217943      -1.50597817      -0.41928957
H        2.49609239       0.20079018       1.00758215
H        1.00170201       1.17036551       1.09513922
H        1.85313097       1.00260458      -0.45964453
14
Properties=species:S:1:pos:R:3 energy=-4305.117114564319 name=nbu_bent smiles=CCCC config_type=start_18 pbc="F F F"
C       -1.54995856       0.38966892       0.00094707
C       -0.52168946      -0.49104367      -0.68225347
C        0.72890715      -0.78119350       0.14573849
C        1.57894219       0.47956774       0.45875595
H       -1.18364270       1.41280492       0.22978988
H       -1.87437904      -0.05747046       0.98401963
H       -2.47872354       0.51898658      -0.61412022
H       -0.23067204      -0.01689375      -1.64920211
H       -0.99345719      -1.45921717      -0.96670358
H        0.45437444      -1.28052376       1.07967245
H        1.35974838      -1.49438787      -0.42458936
H        2.51239003       0.20527706       1.01306596
H        1.02049938       1.19757330       1.09983906
H        1.87119158       1.01256944      -0.45951887
14
Properties=species:S:1:pos:R:3 energy=-4305.117114564319 name=nbu_bent smiles=CCCC config_type=start_19 pbc="F F F"
C       -1.58353746       0.37714114       0.01864299
C       -0.51509324      -0.46685849      -0.68792443
C        0.74594634      -0.77113083       0.11009875
C        1.55516457       0.47005413       0.45702008
H       -1.15887921       1.39662933       0.24759283
H       -1.87758996      -0.05422221       0.98332465
H       -2.47853452       0.51821009      -0.61803704
H       -0.23112083       0.00483220      -1.64610463
H       -0.99458632      -1.45547851      -0.95442932
H        0.45479377      -1.27823562       1.08192314
H        1.35674381      -1.49379188      -0.42640929
H        2.48330197       0.20262735       1.00036157
H        1.01173074       1.19044792       1.07904001
H        1.87587897       0.98807861      -0.46786621
14
Properties=species:S:1:pos:R:3 energy=-4305.117114564319 name=nbu_bent smiles=CCCC config_type=start_20 pbc="F F F"
C       -1.55761309       0.40273692       0.03168305
C       -0.51740243      -0.48204089      -0.68887224
C        0.74501798      -0.76805930       0.13945847
C        1.57023062       0.45484451       0.45535720
H       -1.16159492       1.41155160       0.25259854
H       -1.86501649      -0.08420778       0.99901725
H       -2.47626844       0.51075286      -0.61013135
H       -0.25541103       0.01399225      -1.65702004
H       -1.01518452      -1.44833341      -0.96211378
H        0.43280241      -1.28977571       1.06083686
H        1.36752686      -1.48297385      -0.42216863
H        2.48883918       0.21262185       1.01281255
H        1.00287229       1.17882556       1.09116254
H        1.86987648       1.01027843      -0.45001969
14
Properties=species:S:1:pos:R:3 energy=-4305.117114564319 name=nbu_bent smiles=CCCC config_type=start_21 pbc="F F F"
C       -1.58121959       0.39186875       0.01505995
C       -0.53162515      -0.47571153      -0.69787740
C        0.74316412      -0.77770478       0.12468597
C        1.56717837       0.48085499       0.46375087
H       -1.17325564       1.40534220       0.22488238
H       -1.86816103      -0.07181164       0.98558360
H       -2.48759021       0.50869596      -0.60711168
H       -0.21568500       0.00126041      -1.64442129
H       -0.99921672      -1.44146703      -0.95569578
H        0.44313476      -1.27686897       1.06913243
H        1.37559349      -1.48399327      -0.42439598
H        2.49839718       0.20834302       0.99499309
H        1.01225975       1.19038924       1.08584268
H        1.84402580       1.00368909      -0.45843762
14
Properties=species:S:1:pos:R:3 energy=-4305.117114564319 name=nbu_bent smiles=CCCC config_type=start_22 pbc="F F F"
C       -1.57152781       0.40214451       0.02581650
C       -0.52825133      -0.48606304      -0.69910739
C        0.72809705      -0.77326786       0.12425443
C        1.57379242       0.47159158       0.45151929
H       -1.18244524       1.40489471       0.23092310
H       -1.86327667      -0.07560295       0.98004192
H       -2.46512006       0.50652121      -0.61601383
H       -0.22305180      -0.00122555      -1.64319470
H       -1.01072016      -1.45324534      -0.98966627
H        0.45534447      -1.27657707       1.08997963
H        1.36599862      -1.47803271      -0.41403225
H        2.49991622       0.21499120       0.99626233
H        1.01883146       1.18066973       1.08260801
H        1.88931684       1.01989238      -0.46093684
14
Properties=species:S:1:pos:R:3 energy=-4305.117114564319 name=nbu_bent smiles=CCCC config_type=start_23 pbc="F F F"
C       -1.54786074       0.37893611       0.01067051
C       -0.52898477      -0.48440959      -0.68066782
C        0.72242713      -0.76176969       0.12273883
C        1.56010886       0.47994103       0.46356755
H       -1.15549042       1.39737145       0.23305853
H       -1.86542232      -0.05790022       0.97558923
H       -2.46799636       0.51409003      -0.57985485
H       -0.25352168      -0.01825631      -1.64680589
H       -0.98661455      -1.45298596      -0.96212884
H        0.45202854      -1.29114455       1.08362269
H        1.35906874      -1.48686788      -0.41478753
H        2.49853110       0.21138750       1.00647013
H        1.00430175       1.18823978       1.09461915
H        1.86484251       1.01376882      -0.46442136
14
Properties=species:S:1:pos:R:3 energy=-4305.117114564319 name=nbu_bent smiles=CCCC config_type=start_24 pbc="F F F"
C       -1.55004363       0.41102941       0.03033700
C       -0.51847193      -0.48298735      -0.70429544
C        0.74744655      -0.75542046       0.12783643
C        1.57212881       0.45367857       0.45909652
H       -1.17477614       1.40489686       0.24809498
H       -1.87599819      -0.07787429       0.97190462
H       -2.46021180       0.52468910      -0.60314797
H       -0.23745278       0.00273479      -1.65132002
H       -0.98893671      -1.43820765      -0.96590377
H        0.44095383      -1.28775191       1.06302463
H        1.34964637      -1.49705059      -0.41170878
H        2.49589648       0.20887135       1.00939738
H        1.01539559       1.20210348       1.09316205
H        1.83028781       1.02662306      -0.47007233
