14
Properties=species:S:1:pos:R:3 energy=-4305.170793189098 smiles=CCCC name=tbu config_type=start_0 pbc="F F F"
C        0.12557520       0.06008614      -0.49641770
C        0.39419519       1.28252820       0.27649919
C       -1.38280835      -0.17021038      -0.08580808
C        0.76310500      -1.10334462      -0.15222110
H        0.24677811       0.24086485      -1.56645269
H       -0.26893137       2.23946564      -0.01546356
H        1.40201494       1.63605839       0.06652498
H        0.25836742       1.29301519       1.23314527
H       -1.66477138      -0.34476884       0.78853336
H       -2.10800846       0.48345974      -0.56197850
H       -1.84266519      -1.17984828      -0.78204814
H        0.82817408      -1.37671482       1.14305133
H        1.93393415      -0.99059776      -0.27734496
H        0.50922005      -1.89652511      -0.53318879
14
Properties=species:S:1:pos:R:3 energy=-4305.170793189098 smiles=CCCC name=tbu config_type=start_1 pbc="F F F"
C       -0.03281269       0.15164621      -0.23315211
C        0.53938697       1.16802401       0.25903070
C       -1.58309282      -0.25257849      -0.31609299
C        1.02213346      -1.10418723      -0.01662419
H        0.23769397       0.38597047      -1.37526081
H       -0.14707669       2.21820872      -0.08121646
H        1.48014361       1.63770074      -0.05488972
H        0.16786337       1.31552226       1.28507966
H       -1.67953228      -0.35695767       0.90617474
H       -2.10015985       0.50418792      -0.33389839
H       -1.89651813      -0.96841442      -0.70378848
H        0.86914906      -1.19690738       1.12786292
H        2.08167802      -0.99943018      -0.25354384
H        0.54835714      -2.12011539      -0.73917799
14
Properties=species:S:1:pos:R:3 energy=-4305.170793189098 smiles=CCCC name=tbu config_type=start_2 pbc="F F F"
C       -0.08865642       0.01044829      -0.33025510
C        0.38775078       1.52852020       0.13450708
C       -1.57144034      -0.28427158      -0.34030245
C        0.80866844      -1.20843595      -0.06236536
H        0.09612818       0.06579732      -1.51495766
H       -0.27850094       2.32193296      -0.10928620
H        1.52110038       1.58183341       0.08624896
H        0.35617812       1.43624290       1.45586802
H       -1.80756234      -0.52472419       0.97610894
H       -2.11045443       0.75344567      -0.45289603
H       -1.66771398      -1.25847281      -0.75385331
H        0.69829591      -1.09716833       1.27970407
H        2.20112209      -0.98124210      -0.24071418
H        0.81108579      -2.12886514      -0.57959972
14
Properties=species:S:1:pos:R:3 energy=-4305.170793189098 smiles=CCCC name=tbu config_type=start_3 pbc="F F F"
C        0.18025492       0.07113450      -0.57416407
C        0.42842315       1.44266890       0.13074825
C       -1.62503320      -0.19489921      -0.28927889
C        1.07289706      -1.08342530       0.14898576
H        0.27573194       0.33042817      -1.54795465
H       -0.26280960       2.41491703       0.09016744
H        1.56442736       1.51686193       0.15927755
H        0.35132180       1.27047599       1.46109482
H       -1.61517658      -0.54303187       1.01085320
H       -2.13700107       0.71645140      -0.44643024
H       -1.85368394      -1.12919332      -0.73140501
H        0.89805845      -1.19814547       1.09500318
H        1.98461865      -0.82151505      -0.20497293
H        0.67712506      -2.05018349      -0.40146020
14
Properties=species:S:1:pos:R:3 energy=-4305.170793189098 smiles=CCCC name=tbu config_type=start_4 pbc="F F F"
C       -0.02522659       0.07263256      -0.35659488
C        0.54300651       1.46432577       0.28907082
C       -1.58888085      -0.34604309      -0.26388359
C        1.00964337      -1.15785794       0.02065257
H        0.14406967       0.33459759      -1.63057530
H       -0.04909979       2.19187139      -0.10484815
H        1.55907705       1.52194165       0.11787555
H        0.58860606       1.38024049       1.38416040
H       -1.55489854      -0.47174766       0.91551945
H       -2.04808302       0.61205475      -0.48160022
H       -1.81710145      -1.21706062      -0.75394895
H        0.86602686      -1.39424634       1.12975239
H        1.98042101      -0.99272959      -0.37907881
H        0.68459888      -1.98095397      -0.45260262
14
Properties=species:S:1:pos:R:3 energy=-4305.170793189098 smiles=CCCC name=tbu config_type=start_5 pbc="F F F"
C        0.02391548       0.08423400      -0.40917607
C        0.49390162       1.22437134       0.11438977
C       -1.40165001      -0.12812794      -0.16617495
C        0.97221237      -0.98816788       0.09245608
H        0.25636660       0.38812520      -1.42798199
H       -0.13170065       2.22819423       0.03304896
H        1.52601185       1.56557432       0.04293159
H        0.42397842       1.43296931       1.55021648
H       -1.72218511      -0.45495832       0.80317389
H       -2.05958005       0.49263377      -0.46425787
H       -1.84191463      -1.16871879      -0.83474049
H        1.00341401      -1.40065993       1.07273993
H        1.96914323      -0.98685365      -0.19512187
H        0.79164346      -2.03001494      -0.39182713
14
Properties=species:S:1:pos:R:3 energy=-4305.170793189098 smiles=CCCC name=tbu config_type=start_6 pbc="F F F"
C       -0.05758191       0.08333364      -0.54763589
C        0.53077538       1.35804736       0.35094261
C       -1.51347193      -0.24611180      -0.15289725
C        1.03616717      -1.01457685      -0.05456562
H        0.26706839       0.11895780      -1.46580269
H       -0.25823708       2.07388037      -0.11078916
H        1.65359553       1.56473516      -0.06632575
H        0.34187617       1.22492431       1.29376457
H       -1.59534062      -0.44137006       0.93099487
H       -2.13907755       0.41716010      -0.54311643
H       -1.91595394      -0.97127546      -0.77025160
H        1.05320173      -1.35767642       1.12450342
H        1.91136916      -1.12861866      -0.07065533
H        0.58651647      -2.01846011      -0.51412329
14
Properties=species:S:1:pos:R:3 energy=-4305.170793189098 smiles=CCCC name=tbu config_type=start_7 pbc="F F F"
C       -0.07051203       0.07595325      -0.63425573
C        0.59611154       1.32165334       0.23844915
C       -1.56945846      -0.35480360      -0.10882032
C        1.01443558      -1.00696857      -0.05430106
H        0.17275462       0.33154504      -1.53840079
H       -0.10926010       2.12324856      -0.18389638
H        1.45362778       1.61844584       0.07445955
H        0.30355856       1.48292992       1.35356397
H       -1.70704007      -0.56118698       0.81281218
H       -2.02869611       0.60274016      -0.61912396
H       -1.65847047      -0.99467825      -0.66479142
H        0.74555417      -1.29005064       1.13167997
H        1.93818560      -0.85745240      -0.30033075
H        0.42214149      -2.11355258      -0.58289365
14
Properties=species:S:1:pos:R:3 energy=-4305.170793189098 smiles=CCCC name=tbu config_type=start_8 pbc="F F F"
C        0.05711228       0.03474082      -0.45339948
C        0.55769467       1.48183460       0.33376200
C       -1.54624800      -0.19924400      -0.19624305
C        0.86039257      -0.99566779      -0.08741751
H        0.18174770       0.12386295      -1.42490074
H       -0.11817536       2.18651635      -0.12148661
H        1.53447615       1.54610896       0.08877495
H        0.17129568       1.13859265       1.59160307
H       -1.59596638      -0.47784174       0.89025688
H       -1.94859139       0.77265150      -0.37208337
H       -1.67059476      -1.12901099      -0.81828837
H        0.91081514      -1.25920873       1.10333108
H        2.11973525      -0.78676857      -0.29198652
H        0.61606025      -2.23535552      -0.69819785
14
Properties=species:S:1:pos:R:3 energy=-4305.170793189098 smiles=CCCC name=tbu config_type=start_9 pbc="F F F"
C        0.02010529       0.16842353      -0.41101429
C        0.34244069       1.42917824       0.16202267
C       -1.37967490      -0.30933565      -0.21622875
C        0.82839493      -1.23464539      -0.08965280
H        0.16793743       0.26042642      -1.45056274
H       -0.19173974       2.23496876       0.04562387
H        1.29902335       1.74670698      -0.00587774
H        0.42448325       1.15814872       1.25904283
H       -1.70414760      -0.53787146       1.04179273
H       -2.07986345       0.68843637      -0.53723687
H       -1.73939039      -1.07145281      -0.67256693
H        0.96921062      -1.26988044       1.05955350
H        1.95662022      -0.96520512      -0.17249383
H        0.62740984      -1.97172587      -0.54102840
14
Properties=species:S:1:pos:R:3 energy=-4305.170793189098 smiles=CCCC name=tbu config_type=start_10 pbc="F F F"
C        0.03163499      -0.00706512      -0.50007016
C        0.43631873       1.54921551       0.44912169
C       -1.50709556      -0.12088428      -0.40134849
C        0.87892277      -1.04395098      -0.08307293
H        0.24381558       0.30875337      -1.55927635
H       -0.28448234       2.22488994      -0.03993457
H        1.53435031       1.61919400       0.02573197
H        0.58227685       1.30202015       1.24804962
H       -1.72809107      -0.30010258       0.91573615
H       -2.07027847       0.54324725      -0.36366653
H       -1.68382518      -1.09753352      -0.78537108
H        0.99463313      -1.26524374       1.12972130
H        1.97187412      -0.88257644      -0.25470924
H        0.62800416      -2.00527417      -0.58710441
14
Properties=species:S:1:pos:R:3 energy=-4305.170793189098 smiles=CCCC name=tbu config_type=start_11 pbc="F F F"
C        0.03516718      -0.04012382      -0.27813330
C        0.33975175       1.26565145       0.20179872
C       -1.37782383      -0.20049287      -0.14152689
C        1.00943591      -1.15534166      -0.12298744
H        0.21113454       0.28186709      -1.41177543
H       -0.20869439       2.08634875      -0.16869000
H        1.38146132       1.47649851       0.05742377
H        0.19540692       1.21057844       1.24637462
H       -1.61704848      -0.29077376       0.76400499
H       -2.06442611       0.50657331      -0.54292295
H       -1.86086545      -1.03447890      -0.57757946
H        0.84611434      -1.26307151       1.07421405
H        1.86527091      -0.93227515      -0.27169242
H        0.60044478      -1.88770096      -0.51321855
14
Properties=species:S:1:pos:R:3 energy=-4305.170793189098 smiles=CCCC name=tbu config_type=start_12 pbc="F F F"
C        0.22679710       0.11736868      -0.32723198
C        0.45777997       1.47373900       0.41417653
C       -1.51533293      -0.31298849      -0.19048076
C        0.91670060      -1.10039514       0.02935168
H        0.19555667       0.18582982      -1.63509464
H       -0.04778448       2.13530240      -0.19732811
H        1.59645995       1.53753054       0.08352292
H        0.50927187       1.26179252       1.53817353
H       -1.64091180      -0.39447223       0.89368856
H       -2.19373017       0.60338997      -0.49433917
H       -1.75159949      -1.25631801      -0.92192186
H        0.86283666      -1.26575398       1.21870382
H        1.95928504      -1.00787780      -0.37625093
H        0.80287031      -2.01961501      -0.52193449
14
Properties=species:S:1:pos:R:3 energy=-4305.170793189098 smiles=CCCC name=tbu config_type=start_13 pbc="F F F"
C        0.16748181      -0.14951409      -0.42215443
C        0.41076487       1.45152984       0.33312260
C       -1.52738830      -0.24335567      -0.01890209
C        0.87018638      -0.99261818       0.08579144
H        0.03164290       0.27012627      -1.53458074
H       -0.40679591       1.97187816      -0.17018811
H        1.40191949       1.74685368       0.03978265
H        0.35404982       1.34172811       1.29569078
H       -1.72187296      -0.52738034       0.86136593
H       -2.07269410       0.56198210      -0.33334582
H       -1.72917872      -1.31528273      -0.72118069
H        0.82881795      -1.34771025       1.09231949
H        1.87822614      -1.10256793      -0.18958477
H        0.46682268      -2.09323918      -0.54656331
14
Properties=species:S:1:pos:R:3 energy=-4305.170793189098 smiles=CCCC name=tbu config_type=start_14 pbc="F F F"
C        0.17821044       0.07575218      -0.61924329
C        0.50481544       1.30137727       0.37410527
C       -1.53789952      -0.36372900      -0.07731710
C        0.99739590      -1.06135664      -0.04173155
H        0.06323904       0.37398922      -1.62034716
H       -0.15994040       2.28383538      -0.01118474
H        1.44392758       1.63523177      -0.07041324
H        0.38081957       1.16569553       1.36435888
H       -1.64764892      -0.48502274       0.85840916
H       -2.04382056       0.57052245      -0.49092552
H       -1.85348920      -1.19937975      -0.77417857
H        0.99179430      -1.30284143       1.14715757
H        2.06619975      -0.83048999      -0.14258637
H        0.64742878      -1.99359063      -0.54530671
14
Properties=species:S:1:pos:R:3 energy=-4305.170793189098 smiles=CCCC name=tbu config_type=start_15 pbc="F F F"
C       -0.15757858      -0.04952560      -0.44228412
C        0.57077757       1.54322911       0.31739573
C       -1.36750760      -0.26310233      -0.43371448
C        0.75961974      -1.15649270      -0.05909020
H        0.31087390       0.21223327      -1.44231769
H       -0.19204960       2.31631793      -0.01813452
H        1.44581782       1.62746686      -0.10958141
H        0.37633169       1.38295498       1.39533368
H       -1.65894018      -0.44763605       0.98115180
H       -2.03962727       0.59340383      -0.46841863
H       -1.88353490      -1.19341977      -0.79237788
H        0.70091365      -1.32933847       1.02011374
H        1.97851343      -0.90174381      -0.35057690
H        0.69430272      -2.23849892      -0.62878010
14
Properties=species:S:1:pos:R:3 energy=-4305.170793189098 smiles=CCCC name=tbu config_type=start_16 pbc="F F F"
C        0.10166515       0.20643217      -0.31188350
C        0.54768568       1.39140509       0.30791756
C       -1.37679122      -0.23238700      -0.14011730
C        0.91028022      -1.30858889      -0.07571900
H        0.28371678       0.36145599      -1.39226057
H       -0.06631493       2.01646221       0.13879155
H        1.46847863       1.55289461      -0.03052448
H        0.13342967       1.47455547       1.28617957
H       -1.86492221      -0.37618507       0.90430718
H       -2.25954094       0.47800291      -0.67928140
H       -1.77570439      -1.08523947      -0.74997125
H        0.75628576      -1.22939348       1.14462345
H        1.88992886      -1.01796736      -0.22935163
H        0.63427778      -2.01650068      -0.45031494
14
Properties=species:S:1:pos:R:3 energy=-4305.170793189098 smiles=CCCC name=tbu config_type=start_17 pbc="F F F"
C       -0.13439986       0.09775054      -0.47811450
C        0.40545845       1.45469873       0.21786599
C       -1.39532983      -0.32884182      -0.28784234
C        0.87975769      -1.04848408       0.00821770
H        0.16710960       0.29936196      -1.66942219
H       -0.09776026       2.14042359       0.00445496
H        1.35526091       1.53232565      -0.00032777
H        0.53069001       1.34723706       1.41216712
H       -1.70524421      -0.30752130       0.96848718
H       -2.15621744       0.60707028      -0.59632570
H       -1.69503810      -1.09543367      -0.77224476
H        0.85186578      -1.27218182       0.96642886
H        1.98380353      -0.90233063      -0.28255015
H        0.37577102      -2.08239410      -0.53449421
14
Properties=species:S:1:pos:R:3 energy=-4305.170793189098 smiles=CCCC name=tbu config_type=start_18 pbc="F F F"
C       -0.03748213       0.20050812      -0.37054899
C        0.43919669       1.35118357       0.20556611
C       -1.54600046      -0.28447262      -0.29215770
C        0.94589819      -1.14111816      -0.11409805
H        0.07521362       0.29488711      -1.60901503
H       -0.04891673       2.10251048      -0.05096181
H        1.57996243       1.51057813      -0.08934928
H        0.45702200       1.32237754       1.42443298
H       -1.82027863      -0.42530441       0.62878235
H       -2.03412033       0.60998930      -0.38785373
H       -1.79098676      -1.03582810      -0.66860748
H        0.86705624      -1.20570001       0.97912125
H        2.04952063      -0.99952575      -0.31489685
H        0.82868140      -1.92036124      -0.55948643
14
Properties=species:S:1:pos:R:3 energy=-4305.170793189098 smiles=CCCC name=tbu config_type=start_19 pbc="F F F"
C        0.19918858      -0.03157586      -0.52200892
C        0.43186227       1.36771814       0.38996182
C       -1.60269973      -0.16949093      -0.30731371
C        0.80906262      -1.05762368       0.00638452
H        0.34476185       0.21965445      -1.58766066
H       -0.07037316       2.27953782      -0.09548870
H        1.55119936       1.58626629       0.27224051
H        0.15232321       1.15206986       1.38832106
H       -1.57922253      -0.42271065       0.90415655
H       -2.06727960       0.46431449      -0.45142306
H       -1.86028559      -1.12417979      -0.67616031
H        0.85320502      -1.24173700       1.08119933
H        1.90422351      -0.92382517      -0.19478545
H        0.58393806      -1.98159682      -0.59433157
14
Properties=species:S:1:pos:R:3 energy=-4305.170793189098 smiles=CCCC name=tbu config_type=start_20 pbc="F F F"
C        0.17735969       0.28935706      -0.32534404
C        0.53699071       1.38194048       0.15368557
C       -1.35250553      -0.10599864      -0.25633773
C        0.92926209      -1.32024827      -0.03832577
H        0.15190460       0.29490864      -1.43729619
H       -0.17613188       2.07979706      -0.13233482
H        1.62904496       1.69225704       0.03930927
H        0.31301219       1.36198094       1.34317978
H       -1.60244415      -0.27492754       0.86640734
H       -2.17802674       0.49824091      -0.65740373
H       -1.95450931      -1.22600694      -0.64537283
H        0.82685883      -1.26689855       1.11047176
H        2.01516194      -0.78518820      -0.20935650
H        0.23839111      -1.85305435      -0.65084130
14
Properties=species:S:1:pos:R:3 energy=-4305.170793189098 smiles=CCCC name=tbu config_type=start_21 pbc="F F F"
C        0.12766448      -0.11634359      -0.57823467
C        0.51191318       1.39298859       0.26554829
C       -1.36930243      -0.35688614      -0.05960725
C        0.84297217      -1.14661132      -0.09975350
H        0.05191794       0.16427365      -1.42432265
H        0.05032229       2.31940101      -0.14360077
H        1.45856093       1.78436945       0.10483893
H        0.24845460       1.29545679       1.45261305
H       -1.60463049      -0.54225324       0.79398381
H       -2.26728883       0.57035158      -0.44597441
H       -1.73847577      -1.13910975      -0.78037908
H        0.84146447      -1.25678260       0.93986987
H        2.03845469      -0.89747317      -0.28290145
H        0.73845658      -1.98394248      -0.44339476
14
Properties=species:S:1:pos:R:3 energy=-4305.170793189098 smiles=CCCC name=tbu config_type=start_22 pbc="F F F"
C        0.10256952       0.24433246      -0.70197580
C        0.47245356       1.37220697       0.43866445
C       -1.52841708      -0.25890832      -0.18333234
C        1.00651909      -1.24244102       0.04905078
H        0.37982686       0.08240354      -1.32260482
H       -0.24253604       2.23112954      -0.21021520
H        1.46342973       1.64785413       0.19760805
H        0.18931042       1.40551051       1.31293794
H       -1.60383260      -0.41304170       0.83949816
H       -2.01635501       0.57720972      -0.60215170
H       -1.85600336      -1.20739810      -0.70395159
H        0.84691776      -1.29940041       0.93130999
H        1.97805370      -0.85314787      -0.33843283
H        0.67497261      -1.93920639      -0.51846741
14
Properties=species:S:1:pos:R:3 energy=-4305.170793189098 smiles=CCCC name=tbu config_type=start_23 pbc="F F F"
C        0.06357145       0.11213623      -0.53221735
C        0.54739412       1.44983949       0.37790169
C       -1.39397779      -0.39577824      -0.07186626
C        0.85258921      -1.09908796      -0.14191810
H        0.24973676       0.12449564      -1.33922155
H        0.10457139       2.43091126      -0.01504045
H        1.50515905       1.68390974       0.10124260
H        0.27021083       1.09768346       1.48036374
H       -1.71722868      -0.34198979       0.91665287
H       -2.16924816       0.75611050      -0.58904131
H       -1.73587724      -1.03141847      -0.73990452
H        0.67099003      -1.42493826       1.19962114
H        2.01872445      -0.85812035      -0.39146916
H        0.58387678      -1.82429131      -0.51094981
14
Properties=species:S:1:pos:R:3 energy=-4305.170793189098 smiles=CCCC name=tbu config_type=start_24 pbc="F F F"
C        0.07750752       0.08085341      -0.47894974
C        0.43557724       1.34611619      -0.01076738
C       -1.29266912      -0.38846853      -0.26853745
C        0.97828505      -1.24373242      -0.00217054
H        0.01949854       0.14749718      -1.53829882
H       -0.16329256       2.17035840      -0.07934463
H        1.36521461       1.56337662       0.13913279
H        0.36828102       1.32233729       1.43266239
H       -1.56354736      -0.29741773       0.83937197
H       -2.07029152       0.60151918      -0.61604358
H       -1.68585849      -1.29832658      -0.62691164
H        0.60246757      -1.38070196       1.11849473
H        1.85959805      -0.84116462      -0.31663268
H        0.49736196      -2.10619414      -0.59718844
