2
Properties=species:S:1:pos:R:3:dft_forces:R:3:forces:R:3 dft_energy=-2058.259248458538 energy=-2053.6888036909545 pbc="F F F"
H        0.00000000       0.00000000       0.10000000      -0.00000000      -0.00000000     -17.89984916      -0.00000000      -0.00000000       0.47700857
O        0.00000000       0.00000000       0.90000000      -0.00000000      -0.00000000      17.89984916      -0.00000000      -0.00000000      -0.47700857
2
Properties=species:S:1:pos:R:3:dft_forces:R:3:forces:R:3 dft_energy=-2059.361419517384 energy=-2053.6888036909545 pbc="F F F"
H        0.00000000       0.00000000       0.05344828      -0.00000000      -0.00000000      -6.90157198      -0.00000000      -0.00000000       0.47700857
O        0.00000000       0.00000000       0.94655172      -0.00000000      -0.00000000       6.90157198      -0.00000000      -0.00000000      -0.47700857
2
Properties=species:S:1:pos:R:3:dft_forces:R:3:forces:R:3 dft_energy=-2059.700640662593 energy=-2053.6888036909545 pbc="F F F"
H        0.00000000       0.00000000       0.00689655      -0.00000000      -0.00000000      -1.01397552      -0.00000000      -0.00000000       0.47700857
O        0.00000000       0.00000000       0.99310345      -0.00000000      -0.00000000       1.01397552      -0.00000000      -0.00000000      -0.47700857
2
Properties=species:S:1:pos:R:3:dft_forces:R:3:forces:R:3 dft_energy=-2059.634401700235 energy=-2053.6888036909545 pbc="F F F"
H        0.00000000       0.00000000      -0.03965517      -0.00000000      -0.00000000       2.08870627      -0.00000000      -0.00000000       0.47700857
O        0.00000000       0.00000000       1.03965517      -0.00000000      -0.00000000      -2.08870627      -0.00000000      -0.00000000      -0.47700857
2
Properties=species:S:1:pos:R:3:dft_forces:R:3:forces:R:3 dft_energy=-2059.35765193344 energy=-2053.6888036909545 pbc="F F F"
H        0.00000000       0.00000000      -0.08620690      -0.00000000      -0.00000000       3.66011845      -0.00000000      -0.00000000       0.47700857
O        0.00000000       0.00000000       1.08620690      -0.00000000      -0.00000000      -3.66011845      -0.00000000      -0.00000000      -0.47700857
2
Properties=species:S:1:pos:R:3:dft_forces:R:3:forces:R:3 dft_energy=-2058.9772047666597 energy=-2053.6888036909545 pbc="F F F"
H        0.00000000       0.00000000      -0.13275862      -0.00000000      -0.00000000       4.38766725      -0.00000000      -0.00000000       0.47700857
O        0.00000000       0.00000000       1.13275862      -0.00000000      -0.00000000      -4.38766725      -0.00000000      -0.00000000      -0.47700857
2
Properties=species:S:1:pos:R:3:dft_forces:R:3:forces:R:3 dft_energy=-2058.5523838336007 energy=-2053.6888036909545 pbc="F F F"
H        0.00000000       0.00000000      -0.17931034      -0.00000000      -0.00000000       4.64580606      -0.00000000      -0.00000000       0.47700857
O        0.00000000       0.00000000       1.17931034      -0.00000000      -0.00000000      -4.64580606      -0.00000000      -0.00000000      -0.47700857
2
Properties=species:S:1:pos:R:3:dft_forces:R:3:forces:R:3 dft_energy=-2058.118913198066 energy=-2053.6888036909545 pbc="F F F"
H        0.00000000       0.00000000      -0.22586207      -0.00000000      -0.00000000       4.64452520      -0.00000000      -0.00000000       0.47700857
O        0.00000000       0.00000000       1.22586207      -0.00000000      -0.00000000      -4.64452520      -0.00000000      -0.00000000      -0.47700857
2
Properties=species:S:1:pos:R:3:dft_forces:R:3:forces:R:3 dft_energy=-2057.6921943587136 energy=-2053.6888036909545 pbc="F F F"
H        0.00000000       0.00000000      -0.27241379      -0.00000000      -0.00000000       4.50282725      -0.00000000      -0.00000000       0.47700857
O        0.00000000       0.00000000       1.27241379      -0.00000000      -0.00000000      -4.50282725      -0.00000000      -0.00000000      -0.47700857
2
Properties=species:S:1:pos:R:3:dft_forces:R:3:forces:R:3 dft_energy=-2057.279588334713 energy=-2053.6888036909545 pbc="F F F"
H        0.00000000       0.00000000      -0.31896552      -0.00000000      -0.00000000       4.28280506      -0.00000000      -0.00000000       0.47700857
O        0.00000000       0.00000000       1.31896552      -0.00000000      -0.00000000      -4.28280506      -0.00000000      -0.00000000      -0.47700857
2
Properties=species:S:1:pos:R:3:dft_forces:R:3:forces:R:3 dft_energy=-2056.8929121608467 energy=-2053.6888036909545 pbc="F F F"
H        0.00000000       0.00000000      -0.36551724      -0.00000000      -0.00000000       4.01634329      -0.00000000      -0.00000000       0.47700857
O        0.00000000       0.00000000       1.36551724      -0.00000000      -0.00000000      -4.01634329      -0.00000000      -0.00000000      -0.47700857
2
Properties=species:S:1:pos:R:3:dft_forces:R:3:forces:R:3 dft_energy=-2056.5312368841023 energy=-2053.6888036909545 pbc="F F F"
H        0.00000000       0.00000000      -0.41206897      -0.00000000      -0.00000000       3.72539062      -0.00000000      -0.00000000       0.47700857
O        0.00000000       0.00000000       1.41206897      -0.00000000      -0.00000000      -3.72539062      -0.00000000      -0.00000000      -0.47700857
2
Properties=species:S:1:pos:R:3:dft_forces:R:3:forces:R:3 dft_energy=-2056.1973334737613 energy=-2053.6888036909545 pbc="F F F"
H        0.00000000       0.00000000      -0.45862069      -0.00000000      -0.00000000       3.42269560      -0.00000000      -0.00000000       0.47700857
O        0.00000000       0.00000000       1.45862069      -0.00000000      -0.00000000      -3.42269560      -0.00000000      -0.00000000      -0.47700857
2
Properties=species:S:1:pos:R:3:dft_forces:R:3:forces:R:3 dft_energy=-2055.8920273657413 energy=-2053.6888036909545 pbc="F F F"
H        0.00000000       0.00000000      -0.50517241      -0.00000000      -0.00000000       3.11986314      -0.00000000      -0.00000000       0.47700857
O        0.00000000       0.00000000       1.50517241      -0.00000000      -0.00000000      -3.11986314      -0.00000000      -0.00000000      -0.47700857
2
Properties=species:S:1:pos:R:3:dft_forces:R:3:forces:R:3 dft_energy=-2055.6143392774493 energy=-2053.6888036909545 pbc="F F F"
H        0.00000000       0.00000000      -0.55172414      -0.00000000      -0.00000000       2.82850677      -0.00000000      -0.00000000       0.47700857
O        0.00000000       0.00000000       1.55172414      -0.00000000      -0.00000000      -2.82850677      -0.00000000      -0.00000000      -0.47700857
2
Properties=species:S:1:pos:R:3:dft_forces:R:3:forces:R:3 dft_energy=-2055.3642953113444 energy=-2053.6888036909545 pbc="F F F"
H        0.00000000       0.00000000      -0.59827586      -0.00000000      -0.00000000       2.54800210      -0.00000000      -0.00000000       0.47700857
O        0.00000000       0.00000000       1.59827586      -0.00000000      -0.00000000      -2.54800210      -0.00000000      -0.00000000      -0.47700857
2
Properties=species:S:1:pos:R:3:dft_forces:R:3:forces:R:3 dft_energy=-2055.137521302178 energy=-2053.6888036909545 pbc="F F F"
H        0.00000000       0.00000000      -0.64482759      -0.00000000      -0.00000000       2.29020897      -0.00000000      -0.00000000       0.47700857
O        0.00000000       0.00000000       1.64482759      -0.00000000      -0.00000000      -2.29020897      -0.00000000      -0.00000000      -0.47700857
2
Properties=species:S:1:pos:R:3:dft_forces:R:3:forces:R:3 dft_energy=-2054.936244302545 energy=-2053.6888036909545 pbc="F F F"
H        0.00000000       0.00000000      -0.69137931      -0.00000000      -0.00000000       2.04636772      -0.00000000      -0.00000000       0.47700857
O        0.00000000       0.00000000       1.69137931      -0.00000000      -0.00000000      -2.04636772      -0.00000000      -0.00000000      -0.47700857
2
Properties=species:S:1:pos:R:3:dft_forces:R:3:forces:R:3 dft_energy=-2054.753322099262 energy=-2053.6888036909545 pbc="F F F"
H        0.00000000       0.00000000      -0.73793103      -0.00000000      -0.00000000       1.82939126      -0.00000000      -0.00000000       0.47700857
O        0.00000000       0.00000000       1.73793103      -0.00000000      -0.00000000      -1.82939126      -0.00000000      -0.00000000      -0.47700857
2
Properties=species:S:1:pos:R:3:dft_forces:R:3:forces:R:3 dft_energy=-2054.5919888193093 energy=-2053.6888036909545 pbc="F F F"
H        0.00000000       0.00000000      -0.78448276      -0.00000000      -0.00000000       1.63379174      -0.00000000      -0.00000000       0.47700857
O        0.00000000       0.00000000       1.78448276      -0.00000000      -0.00000000      -1.63379174      -0.00000000      -0.00000000      -0.47700857
2
Properties=species:S:1:pos:R:3:dft_forces:R:3:forces:R:3 dft_energy=-2054.445914262995 energy=-2053.6888036909545 pbc="F F F"
H        0.00000000       0.00000000      -0.83103448      -0.00000000      -0.00000000       1.45029953      -0.00000000      -0.00000000       0.47700857
O        0.00000000       0.00000000       1.83103448      -0.00000000      -0.00000000      -1.45029953      -0.00000000      -0.00000000      -0.47700857
2
Properties=species:S:1:pos:R:3:dft_forces:R:3:forces:R:3 dft_energy=-2054.3185823823023 energy=-2053.6888036909545 pbc="F F F"
H        0.00000000       0.00000000      -0.87758621      -0.00000000      -0.00000000       1.28973400      -0.00000000      -0.00000000       0.47700857
O        0.00000000       0.00000000       1.87758621      -0.00000000      -0.00000000      -1.28973400      -0.00000000      -0.00000000      -0.47700857
2
Properties=species:S:1:pos:R:3:dft_forces:R:3:forces:R:3 dft_energy=-2054.201332921697 energy=-2053.6888036909545 pbc="F F F"
H        0.00000000       0.00000000      -0.92413793      -0.00000000      -0.00000000       1.14391716      -0.00000000      -0.00000000       0.47700857
O        0.00000000       0.00000000       1.92413793      -0.00000000      -0.00000000      -1.14391716      -0.00000000      -0.00000000      -0.47700857
2
Properties=species:S:1:pos:R:3:dft_forces:R:3:forces:R:3 dft_energy=-2054.0955194663075 energy=-2053.6888036909545 pbc="F F F"
H        0.00000000       0.00000000      -0.97068966      -0.00000000      -0.00000000       1.01033456      -0.00000000      -0.00000000       0.47700857
O        0.00000000       0.00000000       1.97068966      -0.00000000      -0.00000000      -1.01033456      -0.00000000      -0.00000000      -0.47700857
2
Properties=species:S:1:pos:R:3:dft_forces:R:3:forces:R:3 dft_energy=-2054.007086969735 energy=-2053.6888036909545 pbc="F F F"
H        0.00000000       0.00000000      -1.01724138      -0.00000000      -0.00000000       0.89160081      -0.00000000      -0.00000000       0.47700857
O        0.00000000       0.00000000       2.01724138      -0.00000000      -0.00000000      -0.89160081      -0.00000000      -0.00000000      -0.47700857
2
Properties=species:S:1:pos:R:3:dft_forces:R:3:forces:R:3 dft_energy=-2053.9229475227016 energy=-2053.6888036909545 pbc="F F F"
H        0.00000000       0.00000000      -1.06379310      -0.00000000      -0.00000000       0.78853760      -0.00000000      -0.00000000       0.47700857
O        0.00000000       0.00000000       2.06379310      -0.00000000      -0.00000000      -0.78853760      -0.00000000      -0.00000000      -0.47700857
2
Properties=species:S:1:pos:R:3:dft_forces:R:3:forces:R:3 dft_energy=-2053.8536744047733 energy=-2053.6888036909545 pbc="F F F"
H        0.00000000       0.00000000      -1.11034483      -0.00000000      -0.00000000       0.69591368      -0.00000000      -0.00000000       0.47700857
O        0.00000000       0.00000000       2.11034483      -0.00000000      -0.00000000      -0.69591368      -0.00000000      -0.00000000      -0.47700857
2
Properties=species:S:1:pos:R:3:dft_forces:R:3:forces:R:3 dft_energy=-2053.788497874288 energy=-2053.6888036909545 pbc="F F F"
H        0.00000000       0.00000000      -1.15689655      -0.00000000      -0.00000000       0.61751060      -0.00000000      -0.00000000       0.47700857
O        0.00000000       0.00000000       2.15689655      -0.00000000      -0.00000000      -0.61751060      -0.00000000      -0.00000000      -0.47700857
2
Properties=species:S:1:pos:R:3:dft_forces:R:3:forces:R:3 dft_energy=-2053.7341399080437 energy=-2053.6888036909545 pbc="F F F"
H        0.00000000       0.00000000      -1.20344828      -0.00000000      -0.00000000       0.53691657      -0.00000000      -0.00000000       0.47700857
O        0.00000000       0.00000000       2.20344828      -0.00000000      -0.00000000      -0.53691657      -0.00000000      -0.00000000      -0.47700857
2
Properties=species:S:1:pos:R:3:dft_forces:R:3:forces:R:3 dft_energy=-2053.6888036909545 energy=-2053.6888036909545 pbc="F F F"
H        0.00000000       0.00000000      -1.25000000      -0.00000000      -0.00000000       0.47700857      -0.00000000      -0.00000000       0.47700857
O        0.00000000       0.00000000       2.25000000      -0.00000000      -0.00000000      -0.47700857      -0.00000000      -0.00000000      -0.47700857
