2
Properties=species:S:1:pos:R:3:forces:R:3:dft_forces:R:3 energy=-2058.259248462467 free_energy=-2058.259248462467 dft_energy=-2058.259248462467 pbc="F F F"
O        0.00000000       0.00000000       0.10000000      -0.00000000      -0.00000000     -17.89984683      -0.00000000      -0.00000000     -17.89984683
H        0.00000000       0.00000000       0.90000000      -0.00000000      -0.00000000      17.89984683      -0.00000000      -0.00000000      17.89984683
2
Properties=species:S:1:pos:R:3:forces:R:3:dft_forces:R:3 energy=-2059.4799238887713 free_energy=-2059.4799238887713 dft_energy=-2059.4799238887713 pbc="F F F"
O        0.00000000       0.00000000       0.04375000      -0.00000000      -0.00000000      -5.35311569      -0.00000000      -0.00000000      -5.35311569
H        0.00000000       0.00000000       0.95625000      -0.00000000      -0.00000000       5.35311569      -0.00000000      -0.00000000       5.35311569
2
Properties=species:S:1:pos:R:3:forces:R:3:dft_forces:R:3 energy=-2059.708758519103 free_energy=-2059.708758519103 dft_energy=-2059.708758519103 pbc="F F F"
O        0.00000000       0.00000000      -0.01250000      -0.00000000      -0.00000000       0.52610439      -0.00000000      -0.00000000       0.52610439
H        0.00000000       0.00000000       1.01250000      -0.00000000      -0.00000000      -0.52610439      -0.00000000      -0.00000000      -0.52610439
2
Properties=species:S:1:pos:R:3:forces:R:3:dft_forces:R:3 energy=-2059.4782809532003 free_energy=-2059.4782809532003 dft_energy=-2059.4782809532003 pbc="F F F"
O        0.00000000       0.00000000      -0.06875000      -0.00000000      -0.00000000       3.19795312      -0.00000000      -0.00000000       3.19795312
H        0.00000000       0.00000000       1.06875000      -0.00000000      -0.00000000      -3.19795312      -0.00000000      -0.00000000      -3.19795312
2
Properties=species:S:1:pos:R:3:forces:R:3:dft_forces:R:3 energy=-2059.044694554742 free_energy=-2059.044694554742 dft_energy=-2059.044694554742 pbc="F F F"
O        0.00000000       0.00000000      -0.12500000      -0.00000000      -0.00000000       4.30688281      -0.00000000      -0.00000000       4.30688281
H        0.00000000       0.00000000       1.12500000      -0.00000000      -0.00000000      -4.30688281      -0.00000000      -0.00000000      -4.30688281
2
Properties=species:S:1:pos:R:3:forces:R:3:dft_forces:R:3 energy=-2058.53435380042 free_energy=-2058.53435380042 dft_energy=-2058.53435380042 pbc="F F F"
O        0.00000000       0.00000000      -0.18125000      -0.00000000      -0.00000000       4.64986097      -0.00000000      -0.00000000       4.64986097
H        0.00000000       0.00000000       1.18125000      -0.00000000      -0.00000000      -4.64986097      -0.00000000      -0.00000000      -4.64986097
2
Properties=species:S:1:pos:R:3:forces:R:3:dft_forces:R:3 energy=-2058.011084359877 free_energy=-2058.011084359877 dft_energy=-2058.011084359877 pbc="F F F"
O        0.00000000       0.00000000      -0.23750000      -0.00000000      -0.00000000       4.61952229      -0.00000000      -0.00000000       4.61952229
H        0.00000000       0.00000000       1.23750000      -0.00000000      -0.00000000      -4.61952229      -0.00000000      -0.00000000      -4.61952229
2
Properties=species:S:1:pos:R:3:forces:R:3:dft_forces:R:3 energy=-2057.499440640121 free_energy=-2057.499440640121 dft_energy=-2057.499440640121 pbc="F F F"
O        0.00000000       0.00000000      -0.29375000      -0.00000000      -0.00000000       4.40830239      -0.00000000      -0.00000000       4.40830239
H        0.00000000       0.00000000       1.29375000      -0.00000000      -0.00000000      -4.40830239      -0.00000000      -0.00000000      -4.40830239
2
Properties=species:S:1:pos:R:3:forces:R:3:dft_forces:R:3 energy=-2057.019135599648 free_energy=-2057.019135599648 dft_energy=-2057.019135599648 pbc="F F F"
O        0.00000000       0.00000000      -0.35000000      -0.00000000      -0.00000000       4.10965387      -0.00000000      -0.00000000       4.10965387
H        0.00000000       0.00000000       1.35000000      -0.00000000      -0.00000000      -4.10965387      -0.00000000      -0.00000000      -4.10965387
2
Properties=species:S:1:pos:R:3:forces:R:3:dft_forces:R:3 energy=-2056.5748090025213 free_energy=-2056.5748090025213 dft_energy=-2056.5748090025213 pbc="F F F"
O        0.00000000       0.00000000      -0.40625000      -0.00000000      -0.00000000       3.76240954      -0.00000000      -0.00000000       3.76240954
H        0.00000000       0.00000000       1.40625000      -0.00000000      -0.00000000      -3.76240954      -0.00000000      -0.00000000      -3.76240954
2
Properties=species:S:1:pos:R:3:forces:R:3:dft_forces:R:3 energy=-2056.1709384177093 free_energy=-2056.1709384177093 dft_energy=-2056.1709384177093 pbc="F F F"
O        0.00000000       0.00000000      -0.46250000      -0.00000000      -0.00000000       3.39720547      -0.00000000      -0.00000000       3.39720547
H        0.00000000       0.00000000       1.46250000      -0.00000000      -0.00000000      -3.39720547      -0.00000000      -0.00000000      -3.39720547
2
Properties=species:S:1:pos:R:3:forces:R:3:dft_forces:R:3 energy=-2055.8090494512026 free_energy=-2055.8090494512026 dft_energy=-2055.8090494512026 pbc="F F F"
O        0.00000000       0.00000000      -0.51875000      -0.00000000      -0.00000000       3.03517353      -0.00000000      -0.00000000       3.03517353
H        0.00000000       0.00000000       1.51875000      -0.00000000      -0.00000000      -3.03517353      -0.00000000      -0.00000000      -3.03517353
2
Properties=species:S:1:pos:R:3:forces:R:3:dft_forces:R:3 energy=-2055.4861705162157 free_energy=-2055.4861705162157 dft_energy=-2055.4861705162157 pbc="F F F"
O        0.00000000       0.00000000      -0.57500000      -0.00000000      -0.00000000       2.68573616      -0.00000000      -0.00000000       2.68573616
H        0.00000000       0.00000000       1.57500000      -0.00000000      -0.00000000      -2.68573616      -0.00000000      -0.00000000      -2.68573616
2
Properties=species:S:1:pos:R:3:forces:R:3:dft_forces:R:3 energy=-2055.20073318481 free_energy=-2055.20073318481 dft_energy=-2055.20073318481 pbc="F F F"
O        0.00000000       0.00000000      -0.63125000      -0.00000000      -0.00000000       2.36347429      -0.00000000      -0.00000000       2.36347429
H        0.00000000       0.00000000       1.63125000      -0.00000000      -0.00000000      -2.36347429      -0.00000000      -0.00000000      -2.36347429
2
Properties=species:S:1:pos:R:3:forces:R:3:dft_forces:R:3 energy=-2054.9520530611803 free_energy=-2054.9520530611803 dft_energy=-2054.9520530611803 pbc="F F F"
O        0.00000000       0.00000000      -0.68750000      -0.00000000      -0.00000000       2.06559305      -0.00000000      -0.00000000       2.06559305
H        0.00000000       0.00000000       1.68750000      -0.00000000      -0.00000000      -2.06559305      -0.00000000      -0.00000000      -2.06559305
2
Properties=species:S:1:pos:R:3:forces:R:3:dft_forces:R:3 energy=-2054.732030625547 free_energy=-2054.732030625547 dft_energy=-2054.732030625547 pbc="F F F"
O        0.00000000       0.00000000      -0.74375000      -0.00000000      -0.00000000       1.80386335      -0.00000000      -0.00000000       1.80386335
H        0.00000000       0.00000000       1.74375000      -0.00000000      -0.00000000      -1.80386335      -0.00000000      -0.00000000      -1.80386335
2
Properties=species:S:1:pos:R:3:forces:R:3:dft_forces:R:3 energy=-2054.542326110299 free_energy=-2054.542326110299 dft_energy=-2054.542326110299 pbc="F F F"
O        0.00000000       0.00000000      -0.80000000      -0.00000000      -0.00000000       1.57244522      -0.00000000      -0.00000000       1.57244522
H        0.00000000       0.00000000       1.80000000      -0.00000000      -0.00000000      -1.57244522      -0.00000000      -0.00000000      -1.57244522
2
Properties=species:S:1:pos:R:3:forces:R:3:dft_forces:R:3 energy=-2054.375067251081 free_energy=-2054.375067251081 dft_energy=-2054.375067251081 pbc="F F F"
O        0.00000000       0.00000000      -0.85625000      -0.00000000      -0.00000000       1.36113822      -0.00000000      -0.00000000       1.36113822
H        0.00000000       0.00000000       1.85625000      -0.00000000      -0.00000000      -1.36113822      -0.00000000      -0.00000000      -1.36113822
2
Properties=species:S:1:pos:R:3:forces:R:3:dft_forces:R:3 energy=-2054.228727737985 free_energy=-2054.228727737985 dft_energy=-2054.228727737985 pbc="F F F"
O        0.00000000       0.00000000      -0.91250000      -0.00000000      -0.00000000       1.17757947      -0.00000000      -0.00000000       1.17757947
H        0.00000000       0.00000000       1.91250000      -0.00000000      -0.00000000      -1.17757947      -0.00000000      -0.00000000      -1.17757947
2
Properties=species:S:1:pos:R:3:forces:R:3:dft_forces:R:3 energy=-2054.099439437757 free_energy=-2054.099439437757 dft_energy=-2054.099439437757 pbc="F F F"
O        0.00000000       0.00000000      -0.96875000      -0.00000000      -0.00000000       1.01554765      -0.00000000      -0.00000000       1.01554765
H        0.00000000       0.00000000       1.96875000      -0.00000000      -0.00000000      -1.01554765      -0.00000000      -0.00000000      -1.01554765
2
Properties=species:S:1:pos:R:3:forces:R:3:dft_forces:R:3 energy=-2053.993394971146 free_energy=-2053.993394971146 dft_energy=-2053.993394971146 pbc="F F F"
O        0.00000000       0.00000000      -1.02500000      -0.00000000      -0.00000000       0.87321835      -0.00000000      -0.00000000       0.87321835
H        0.00000000       0.00000000       2.02500000      -0.00000000      -0.00000000      -0.87321835      -0.00000000      -0.00000000      -0.87321835
2
Properties=species:S:1:pos:R:3:forces:R:3:dft_forces:R:3 energy=-2053.8954072004035 free_energy=-2053.8954072004035 dft_energy=-2053.8954072004035 pbc="F F F"
O        0.00000000       0.00000000      -1.08125000      -0.00000000      -0.00000000       0.75264974      -0.00000000      -0.00000000       0.75264974
H        0.00000000       0.00000000       2.08125000      -0.00000000      -0.00000000      -0.75264974      -0.00000000      -0.00000000      -0.75264974
2
Properties=species:S:1:pos:R:3:forces:R:3:dft_forces:R:3 energy=-2053.8138203326907 free_energy=-2053.8138203326907 dft_energy=-2053.8138203326907 pbc="F F F"
O        0.00000000       0.00000000      -1.13750000      -0.00000000      -0.00000000       0.65289054      -0.00000000      -0.00000000       0.65289054
H        0.00000000       0.00000000       2.13750000      -0.00000000      -0.00000000      -0.65289054      -0.00000000      -0.00000000      -0.65289054
2
Properties=species:S:1:pos:R:3:forces:R:3:dft_forces:R:3 energy=-2053.744707187246 free_energy=-2053.744707187246 dft_energy=-2053.744707187246 pbc="F F F"
O        0.00000000       0.00000000      -1.19375000      -0.00000000      -0.00000000       0.55304720      -0.00000000      -0.00000000       0.55304720
H        0.00000000       0.00000000       2.19375000      -0.00000000      -0.00000000      -0.55304720      -0.00000000      -0.00000000      -0.55304720
2
Properties=species:S:1:pos:R:3:forces:R:3:dft_forces:R:3 energy=-2053.6888036912646 free_energy=-2053.6888036912646 dft_energy=-2053.6888036912646 pbc="F F F"
O        0.00000000       0.00000000      -1.25000000      -0.00000000      -0.00000000       0.47700254      -0.00000000      -0.00000000       0.47700254
H        0.00000000       0.00000000       2.25000000      -0.00000000      -0.00000000      -0.47700254      -0.00000000      -0.00000000      -0.47700254
