2
Properties=species:S:1:pos:R:3:dft_forces:R:3:forces:R:3 dft_energy=-26.228968446837452 energy=-25.23327804820451 pbc="F F F"
H        0.00000000       0.00000000       0.30000000      -0.00000000      -0.00000000     -50.48074667      -0.00000000      -0.00000000       0.44344046
H        0.00000000       0.00000000       0.70000000      -0.00000000      -0.00000000      50.48074667      -0.00000000      -0.00000000      -0.44344046
2
Properties=species:S:1:pos:R:3:dft_forces:R:3:forces:R:3 dft_energy=-29.831966336288044 energy=-25.23327804820451 pbc="F F F"
H        0.00000000       0.00000000       0.24655172      -0.00000000      -0.00000000     -20.99033408      -0.00000000      -0.00000000       0.44344046
H        0.00000000       0.00000000       0.75344828      -0.00000000      -0.00000000      20.99033408      -0.00000000      -0.00000000      -0.44344046
2
Properties=species:S:1:pos:R:3:dft_forces:R:3:forces:R:3 dft_energy=-31.271875219307322 energy=-25.23327804820451 pbc="F F F"
H        0.00000000       0.00000000       0.19310345      -0.00000000      -0.00000000      -7.59421285      -0.00000000      -0.00000000       0.44344046
H        0.00000000       0.00000000       0.80689655      -0.00000000      -0.00000000       7.59421285      -0.00000000      -0.00000000      -0.44344046
2
Properties=species:S:1:pos:R:3:dft_forces:R:3:forces:R:3 dft_energy=-31.694153694798 energy=-25.23327804820451 pbc="F F F"
H        0.00000000       0.00000000       0.13965517      -0.00000000      -0.00000000      -1.06243510      -0.00000000      -0.00000000       0.44344046
H        0.00000000       0.00000000       0.86034483      -0.00000000      -0.00000000       1.06243510      -0.00000000      -0.00000000      -0.44344046
2
Properties=species:S:1:pos:R:3:dft_forces:R:3:forces:R:3 dft_energy=-31.613258478391057 energy=-25.23327804820451 pbc="F F F"
H        0.00000000       0.00000000       0.08620690      -0.00000000      -0.00000000       2.19697034      -0.00000000      -0.00000000       0.44344046
H        0.00000000       0.00000000       0.91379310      -0.00000000      -0.00000000      -2.19697034      -0.00000000      -0.00000000      -0.44344046
2
Properties=species:S:1:pos:R:3:dft_forces:R:3:forces:R:3 dft_energy=-31.28343122400535 energy=-25.23327804820451 pbc="F F F"
H        0.00000000       0.00000000       0.03275862      -0.00000000      -0.00000000       3.77513269      -0.00000000      -0.00000000       0.44344046
H        0.00000000       0.00000000       0.96724138      -0.00000000      -0.00000000      -3.77513269      -0.00000000      -0.00000000      -0.44344046
2
Properties=species:S:1:pos:R:3:dft_forces:R:3:forces:R:3 dft_energy=-30.837485961474105 energy=-25.23327804820451 pbc="F F F"
H        0.00000000       0.00000000      -0.02068966      -0.00000000      -0.00000000       4.46166538      -0.00000000      -0.00000000       0.44344046
H        0.00000000       0.00000000       1.02068966      -0.00000000      -0.00000000      -4.46166538      -0.00000000      -0.00000000      -0.44344046
2
Properties=species:S:1:pos:R:3:dft_forces:R:3:forces:R:3 dft_energy=-30.346452625404112 energy=-25.23327804820451 pbc="F F F"
H        0.00000000       0.00000000      -0.07413793      -0.00000000      -0.00000000       4.66714415      -0.00000000      -0.00000000       0.44344046
H        0.00000000       0.00000000       1.07413793      -0.00000000      -0.00000000      -4.66714415      -0.00000000      -0.00000000      -0.44344046
2
Properties=species:S:1:pos:R:3:dft_forces:R:3:forces:R:3 dft_energy=-29.84883764075393 energy=-25.23327804820451 pbc="F F F"
H        0.00000000       0.00000000      -0.12758621      -0.00000000      -0.00000000       4.61007325      -0.00000000      -0.00000000       0.44344046
H        0.00000000       0.00000000       1.12758621      -0.00000000      -0.00000000      -4.61007325      -0.00000000      -0.00000000      -0.44344046
2
Properties=species:S:1:pos:R:3:dft_forces:R:3:forces:R:3 dft_energy=-29.365792569636305 energy=-25.23327804820451 pbc="F F F"
H        0.00000000       0.00000000      -0.18103448      -0.00000000      -0.00000000       4.41047454      -0.00000000      -0.00000000       0.44344046
H        0.00000000       0.00000000       1.18103448      -0.00000000      -0.00000000      -4.41047454      -0.00000000      -0.00000000      -0.44344046
2
Properties=species:S:1:pos:R:3:dft_forces:R:3:forces:R:3 dft_energy=-28.908493380687116 energy=-25.23327804820451 pbc="F F F"
H        0.00000000       0.00000000      -0.23448276      -0.00000000      -0.00000000       4.13730610      -0.00000000      -0.00000000       0.44344046
H        0.00000000       0.00000000       1.23448276      -0.00000000      -0.00000000      -4.13730610      -0.00000000      -0.00000000      -0.44344046
2
Properties=species:S:1:pos:R:3:dft_forces:R:3:forces:R:3 dft_energy=-28.482466402329642 energy=-25.23327804820451 pbc="F F F"
H        0.00000000       0.00000000      -0.28793103      -0.00000000      -0.00000000       3.82967478      -0.00000000      -0.00000000       0.44344046
H        0.00000000       0.00000000       1.28793103      -0.00000000      -0.00000000      -3.82967478      -0.00000000      -0.00000000      -0.44344046
2
Properties=species:S:1:pos:R:3:dft_forces:R:3:forces:R:3 dft_energy=-28.09010528150011 energy=-25.23327804820451 pbc="F F F"
H        0.00000000       0.00000000      -0.34137931      -0.00000000      -0.00000000       3.51036304      -0.00000000      -0.00000000       0.44344046
H        0.00000000       0.00000000       1.34137931      -0.00000000      -0.00000000      -3.51036304      -0.00000000      -0.00000000      -0.44344046
2
Properties=species:S:1:pos:R:3:dft_forces:R:3:forces:R:3 dft_energy=-27.73188990157111 energy=-25.23327804820451 pbc="F F F"
H        0.00000000       0.00000000      -0.39482759      -0.00000000      -0.00000000       3.19263727      -0.00000000      -0.00000000       0.44344046
H        0.00000000       0.00000000       1.39482759      -0.00000000      -0.00000000      -3.19263727      -0.00000000      -0.00000000      -0.44344046
2
Properties=species:S:1:pos:R:3:dft_forces:R:3:forces:R:3 dft_energy=-27.407145416338686 energy=-25.23327804820451 pbc="F F F"
H        0.00000000       0.00000000      -0.44827586      -0.00000000      -0.00000000       2.88564825      -0.00000000      -0.00000000       0.44344046
H        0.00000000       0.00000000       1.44827586      -0.00000000      -0.00000000      -2.88564825      -0.00000000      -0.00000000      -0.44344046
2
Properties=species:S:1:pos:R:3:dft_forces:R:3:forces:R:3 dft_energy=-27.114449904466404 energy=-25.23327804820451 pbc="F F F"
H        0.00000000       0.00000000      -0.50172414      -0.00000000      -0.00000000       2.59348238      -0.00000000      -0.00000000       0.44344046
H        0.00000000       0.00000000       1.50172414      -0.00000000      -0.00000000      -2.59348238      -0.00000000      -0.00000000      -0.44344046
2
Properties=species:S:1:pos:R:3:dft_forces:R:3:forces:R:3 dft_energy=-26.851962729824 energy=-25.23327804820451 pbc="F F F"
H        0.00000000       0.00000000      -0.55517241      -0.00000000      -0.00000000       2.32098875      -0.00000000      -0.00000000       0.44344046
H        0.00000000       0.00000000       1.55517241      -0.00000000      -0.00000000      -2.32098875      -0.00000000      -0.00000000      -0.44344046
2
Properties=species:S:1:pos:R:3:dft_forces:R:3:forces:R:3 dft_energy=-26.617450135946115 energy=-25.23327804820451 pbc="F F F"
H        0.00000000       0.00000000      -0.60862069      -0.00000000      -0.00000000       2.07013904      -0.00000000      -0.00000000       0.44344046
H        0.00000000       0.00000000       1.60862069      -0.00000000      -0.00000000      -2.07013904      -0.00000000      -0.00000000      -0.44344046
2
Properties=species:S:1:pos:R:3:dft_forces:R:3:forces:R:3 dft_energy=-26.408699832363023 energy=-25.23327804820451 pbc="F F F"
H        0.00000000       0.00000000      -0.66206897      -0.00000000      -0.00000000       1.83982146      -0.00000000      -0.00000000       0.44344046
H        0.00000000       0.00000000       1.66206897      -0.00000000      -0.00000000      -1.83982146      -0.00000000      -0.00000000      -0.44344046
2
Properties=species:S:1:pos:R:3:dft_forces:R:3:forces:R:3 dft_energy=-26.223384058077528 energy=-25.23327804820451 pbc="F F F"
H        0.00000000       0.00000000      -0.71551724      -0.00000000      -0.00000000       1.63221479      -0.00000000      -0.00000000       0.44344046
H        0.00000000       0.00000000       1.71551724      -0.00000000      -0.00000000      -1.63221479      -0.00000000      -0.00000000      -0.44344046
2
Properties=species:S:1:pos:R:3:dft_forces:R:3:forces:R:3 dft_energy=-26.059076215706263 energy=-25.23327804820451 pbc="F F F"
H        0.00000000       0.00000000      -0.76896552      -0.00000000      -0.00000000       1.44521366      -0.00000000      -0.00000000       0.44344046
H        0.00000000       0.00000000       1.76896552      -0.00000000      -0.00000000      -1.44521366      -0.00000000      -0.00000000      -0.44344046
2
Properties=species:S:1:pos:R:3:dft_forces:R:3:forces:R:3 dft_energy=-25.91384488552138 energy=-25.23327804820451 pbc="F F F"
H        0.00000000       0.00000000      -0.82241379      -0.00000000      -0.00000000       1.27746198      -0.00000000      -0.00000000       0.44344046
H        0.00000000       0.00000000       1.82241379      -0.00000000      -0.00000000      -1.27746198      -0.00000000      -0.00000000      -0.44344046
2
Properties=species:S:1:pos:R:3:dft_forces:R:3:forces:R:3 dft_energy=-25.785468928617853 energy=-25.23327804820451 pbc="F F F"
H        0.00000000       0.00000000      -0.87586207      -0.00000000      -0.00000000       1.12671497      -0.00000000      -0.00000000       0.44344046
H        0.00000000       0.00000000       1.87586207      -0.00000000      -0.00000000      -1.12671497      -0.00000000      -0.00000000      -0.44344046
2
Properties=species:S:1:pos:R:3:dft_forces:R:3:forces:R:3 dft_energy=-25.67235400191759 energy=-25.23327804820451 pbc="F F F"
H        0.00000000       0.00000000      -0.92931034      -0.00000000      -0.00000000       0.99252066      -0.00000000      -0.00000000       0.44344046
H        0.00000000       0.00000000       1.92931034      -0.00000000      -0.00000000      -0.99252066      -0.00000000      -0.00000000      -0.44344046
2
Properties=species:S:1:pos:R:3:dft_forces:R:3:forces:R:3 dft_energy=-25.572959504199595 energy=-25.23327804820451 pbc="F F F"
H        0.00000000       0.00000000      -0.98275862      -0.00000000      -0.00000000       0.87318732      -0.00000000      -0.00000000       0.44344046
H        0.00000000       0.00000000       1.98275862      -0.00000000      -0.00000000      -0.87318732      -0.00000000      -0.00000000      -0.44344046
2
Properties=species:S:1:pos:R:3:dft_forces:R:3:forces:R:3 dft_energy=-25.48546774957919 energy=-25.23327804820451 pbc="F F F"
H        0.00000000       0.00000000      -1.03620690      -0.00000000      -0.00000000       0.76573104      -0.00000000      -0.00000000       0.44344046
H        0.00000000       0.00000000       2.03620690      -0.00000000      -0.00000000      -0.76573104      -0.00000000      -0.00000000      -0.44344046
2
Properties=species:S:1:pos:R:3:dft_forces:R:3:forces:R:3 dft_energy=-25.40913013768831 energy=-25.23327804820451 pbc="F F F"
H        0.00000000       0.00000000      -1.08965517      -0.00000000      -0.00000000       0.67031752      -0.00000000      -0.00000000       0.44344046
H        0.00000000       0.00000000       2.08965517      -0.00000000      -0.00000000      -0.67031752      -0.00000000      -0.00000000      -0.44344046
2
Properties=species:S:1:pos:R:3:dft_forces:R:3:forces:R:3 dft_energy=-25.342161832118293 energy=-25.23327804820451 pbc="F F F"
H        0.00000000       0.00000000      -1.14310345      -0.00000000      -0.00000000       0.58487800      -0.00000000      -0.00000000       0.44344046
H        0.00000000       0.00000000       2.14310345      -0.00000000      -0.00000000      -0.58487800      -0.00000000      -0.00000000      -0.44344046
2
Properties=species:S:1:pos:R:3:dft_forces:R:3:forces:R:3 dft_energy=-25.28418611062506 energy=-25.23327804820451 pbc="F F F"
H        0.00000000       0.00000000      -1.19655172      -0.00000000      -0.00000000       0.51065940      -0.00000000      -0.00000000       0.44344046
H        0.00000000       0.00000000       2.19655172      -0.00000000      -0.00000000      -0.51065940      -0.00000000      -0.00000000      -0.44344046
2
Properties=species:S:1:pos:R:3:dft_forces:R:3:forces:R:3 dft_energy=-25.23327804820451 energy=-25.23327804820451 pbc="F F F"
H        0.00000000       0.00000000      -1.25000000      -0.00000000      -0.00000000       0.44344046      -0.00000000      -0.00000000       0.44344046
H        0.00000000       0.00000000       2.25000000      -0.00000000      -0.00000000      -0.44344046      -0.00000000      -0.00000000      -0.44344046
