2
Properties=species:S:1:pos:R:3:dft_forces:R:3:forces:R:3 dft_energy=-1042.9643963895398 energy=-1041.5966734494816 pbc="F F F"
C        0.00000000       0.00000000       0.10000000      -0.00000000      -0.00000000     -27.27033710      -0.00000000      -0.00000000       0.68114429
H        0.00000000       0.00000000       0.90000000      -0.00000000      -0.00000000      27.27033710      -0.00000000      -0.00000000      -0.68114429
2
Properties=species:S:1:pos:R:3:dft_forces:R:3:forces:R:3 dft_energy=-1044.8579217585484 energy=-1041.5966734494816 pbc="F F F"
C        0.00000000       0.00000000       0.05344828      -0.00000000      -0.00000000     -14.49827455      -0.00000000      -0.00000000       0.68114429
H        0.00000000       0.00000000       0.94655172      -0.00000000      -0.00000000      14.49827455      -0.00000000      -0.00000000      -0.68114429
2
Properties=species:S:1:pos:R:3:dft_forces:R:3:forces:R:3 dft_energy=-1045.822369990002 energy=-1041.5966734494816 pbc="F F F"
C        0.00000000       0.00000000       0.00689655      -0.00000000      -0.00000000      -6.87285868      -0.00000000      -0.00000000       0.68114429
H        0.00000000       0.00000000       0.99310345      -0.00000000      -0.00000000       6.87285868      -0.00000000      -0.00000000      -0.68114429
2
Properties=species:S:1:pos:R:3:dft_forces:R:3:forces:R:3 dft_energy=-1046.2332473611182 energy=-1041.5966734494816 pbc="F F F"
C        0.00000000       0.00000000      -0.03965517      -0.00000000      -0.00000000      -2.34964519      -0.00000000      -0.00000000       0.68114429
H        0.00000000       0.00000000       1.03965517      -0.00000000      -0.00000000       2.34964519      -0.00000000      -0.00000000      -0.68114429
2
Properties=species:S:1:pos:R:3:dft_forces:R:3:forces:R:3 dft_energy=-1046.3176998875235 energy=-1041.5966734494816 pbc="F F F"
C        0.00000000       0.00000000      -0.08620690      -0.00000000      -0.00000000       0.29191989      -0.00000000      -0.00000000       0.68114429
H        0.00000000       0.00000000       1.08620690      -0.00000000      -0.00000000      -0.29191989      -0.00000000      -0.00000000      -0.68114429
2
Properties=species:S:1:pos:R:3:dft_forces:R:3:forces:R:3 dft_energy=-1046.2136051781474 energy=-1041.5966734494816 pbc="F F F"
C        0.00000000       0.00000000      -0.13275862      -0.00000000      -0.00000000       1.79868173      -0.00000000      -0.00000000       0.68114429
H        0.00000000       0.00000000       1.13275862      -0.00000000      -0.00000000      -1.79868173      -0.00000000      -0.00000000      -0.68114429
2
Properties=species:S:1:pos:R:3:dft_forces:R:3:forces:R:3 dft_energy=-1046.0034707208886 energy=-1041.5966734494816 pbc="F F F"
C        0.00000000       0.00000000      -0.17931034      -0.00000000      -0.00000000       2.62760791      -0.00000000      -0.00000000       0.68114429
H        0.00000000       0.00000000       1.17931034      -0.00000000      -0.00000000      -2.62760791      -0.00000000      -0.00000000      -0.68114429
2
Properties=species:S:1:pos:R:3:dft_forces:R:3:forces:R:3 dft_energy=-1045.7368776006351 energy=-1041.5966734494816 pbc="F F F"
C        0.00000000       0.00000000      -0.22586207      -0.00000000      -0.00000000       3.05032391      -0.00000000      -0.00000000       0.68114429
H        0.00000000       0.00000000       1.22586207      -0.00000000      -0.00000000      -3.05032391      -0.00000000      -0.00000000      -0.68114429
2
Properties=species:S:1:pos:R:3:dft_forces:R:3:forces:R:3 dft_energy=-1045.4429705960433 energy=-1041.5966734494816 pbc="F F F"
C        0.00000000       0.00000000      -0.27241379      -0.00000000      -0.00000000       3.23312355      -0.00000000      -0.00000000       0.68114429
H        0.00000000       0.00000000       1.27241379      -0.00000000      -0.00000000      -3.23312355      -0.00000000      -0.00000000      -0.68114429
2
Properties=species:S:1:pos:R:3:dft_forces:R:3:forces:R:3 dft_energy=-1045.1389463293262 energy=-1041.5966734494816 pbc="F F F"
C        0.00000000       0.00000000      -0.31896552      -0.00000000      -0.00000000       3.27196878      -0.00000000      -0.00000000       0.68114429
H        0.00000000       0.00000000       1.31896552      -0.00000000      -0.00000000      -3.27196878      -0.00000000      -0.00000000      -0.68114429
2
Properties=species:S:1:pos:R:3:dft_forces:R:3:forces:R:3 dft_energy=-1044.8359338366934 energy=-1041.5966734494816 pbc="F F F"
C        0.00000000       0.00000000      -0.36551724      -0.00000000      -0.00000000       3.22398272      -0.00000000      -0.00000000       0.68114429
H        0.00000000       0.00000000       1.36551724      -0.00000000      -0.00000000      -3.22398272      -0.00000000      -0.00000000      -0.68114429
2
Properties=species:S:1:pos:R:3:dft_forces:R:3:forces:R:3 dft_energy=-1044.5389561460995 energy=-1041.5966734494816 pbc="F F F"
C        0.00000000       0.00000000      -0.41206897      -0.00000000      -0.00000000       3.12438549      -0.00000000      -0.00000000       0.68114429
H        0.00000000       0.00000000       1.41206897      -0.00000000      -0.00000000      -3.12438549      -0.00000000      -0.00000000      -0.68114429
2
Properties=species:S:1:pos:R:3:dft_forces:R:3:forces:R:3 dft_energy=-1044.2544424043722 energy=-1041.5966734494816 pbc="F F F"
C        0.00000000       0.00000000      -0.45862069      -0.00000000      -0.00000000       2.99103550      -0.00000000      -0.00000000       0.68114429
H        0.00000000       0.00000000       1.45862069      -0.00000000      -0.00000000      -2.99103550      -0.00000000      -0.00000000      -0.68114429
2
Properties=species:S:1:pos:R:3:dft_forces:R:3:forces:R:3 dft_energy=-1043.9819658290305 energy=-1041.5966734494816 pbc="F F F"
C        0.00000000       0.00000000      -0.50517241      -0.00000000      -0.00000000       2.83606310      -0.00000000      -0.00000000       0.68114429
H        0.00000000       0.00000000       1.50517241      -0.00000000      -0.00000000      -2.83606310      -0.00000000      -0.00000000      -0.68114429
2
Properties=species:S:1:pos:R:3:dft_forces:R:3:forces:R:3 dft_energy=-1043.7259207793995 energy=-1041.5966734494816 pbc="F F F"
C        0.00000000       0.00000000      -0.55172414      -0.00000000      -0.00000000       2.66802076      -0.00000000      -0.00000000       0.68114429
H        0.00000000       0.00000000       1.55172414      -0.00000000      -0.00000000      -2.66802076      -0.00000000      -0.00000000      -0.68114429
2
Properties=species:S:1:pos:R:3:dft_forces:R:3:forces:R:3 dft_energy=-1043.4852022380082 energy=-1041.5966734494816 pbc="F F F"
C        0.00000000       0.00000000      -0.59827586      -0.00000000      -0.00000000       2.48980557      -0.00000000      -0.00000000       0.68114429
H        0.00000000       0.00000000       1.59827586      -0.00000000      -0.00000000      -2.48980557      -0.00000000      -0.00000000      -0.68114429
2
Properties=species:S:1:pos:R:3:dft_forces:R:3:forces:R:3 dft_energy=-1043.2618985125205 energy=-1041.5966734494816 pbc="F F F"
C        0.00000000       0.00000000      -0.64482759      -0.00000000      -0.00000000       2.31360959      -0.00000000      -0.00000000       0.68114429
H        0.00000000       0.00000000       1.64482759      -0.00000000      -0.00000000      -2.31360959      -0.00000000      -0.00000000      -0.68114429
2
Properties=species:S:1:pos:R:3:dft_forces:R:3:forces:R:3 dft_energy=-1043.0548090959717 energy=-1041.5966734494816 pbc="F F F"
C        0.00000000       0.00000000      -0.69137931      -0.00000000      -0.00000000       2.13467209      -0.00000000      -0.00000000       0.68114429
H        0.00000000       0.00000000       1.69137931      -0.00000000      -0.00000000      -2.13467209      -0.00000000      -0.00000000      -0.68114429
2
Properties=species:S:1:pos:R:3:dft_forces:R:3:forces:R:3 dft_energy=-1042.864178314148 energy=-1041.5966734494816 pbc="F F F"
C        0.00000000       0.00000000      -0.73793103      -0.00000000      -0.00000000       1.96248221      -0.00000000      -0.00000000       0.68114429
H        0.00000000       0.00000000       1.73793103      -0.00000000      -0.00000000      -1.96248221      -0.00000000      -0.00000000      -0.68114429
2
Properties=species:S:1:pos:R:3:dft_forces:R:3:forces:R:3 dft_energy=-1042.6888119843416 energy=-1041.5966734494816 pbc="F F F"
C        0.00000000       0.00000000      -0.78448276      -0.00000000      -0.00000000       1.80099138      -0.00000000      -0.00000000       0.68114429
H        0.00000000       0.00000000       1.78448276      -0.00000000      -0.00000000      -1.80099138      -0.00000000      -0.00000000      -0.68114429
2
Properties=species:S:1:pos:R:3:dft_forces:R:3:forces:R:3 dft_energy=-1042.5283092056056 energy=-1041.5966734494816 pbc="F F F"
C        0.00000000       0.00000000      -0.83103448      -0.00000000      -0.00000000       1.64454962      -0.00000000      -0.00000000       0.68114429
H        0.00000000       0.00000000       1.83103448      -0.00000000      -0.00000000      -1.64454962      -0.00000000      -0.00000000      -0.68114429
2
Properties=species:S:1:pos:R:3:dft_forces:R:3:forces:R:3 dft_energy=-1042.382104425388 energy=-1041.5966734494816 pbc="F F F"
C        0.00000000       0.00000000      -0.87758621      -0.00000000      -0.00000000       1.50091361      -0.00000000      -0.00000000       0.68114429
H        0.00000000       0.00000000       1.87758621      -0.00000000      -0.00000000      -1.50091361      -0.00000000      -0.00000000      -0.68114429
2
Properties=species:S:1:pos:R:3:dft_forces:R:3:forces:R:3 dft_energy=-1042.2481809925257 energy=-1041.5966734494816 pbc="F F F"
C        0.00000000       0.00000000      -0.92413793      -0.00000000      -0.00000000       1.37024276      -0.00000000      -0.00000000       0.68114429
H        0.00000000       0.00000000       1.92413793      -0.00000000      -0.00000000      -1.37024276      -0.00000000      -0.00000000      -0.68114429
2
Properties=species:S:1:pos:R:3:dft_forces:R:3:forces:R:3 dft_energy=-1042.1264436405256 energy=-1041.5966734494816 pbc="F F F"
C        0.00000000       0.00000000      -0.97068966      -0.00000000      -0.00000000       1.24770412      -0.00000000      -0.00000000       0.68114429
H        0.00000000       0.00000000       1.97068966      -0.00000000      -0.00000000      -1.24770412      -0.00000000      -0.00000000      -0.68114429
2
Properties=species:S:1:pos:R:3:dft_forces:R:3:forces:R:3 dft_energy=-1042.0154973850817 energy=-1041.5966734494816 pbc="F F F"
C        0.00000000       0.00000000      -1.01724138      -0.00000000      -0.00000000       1.13127017      -0.00000000      -0.00000000       0.68114429
H        0.00000000       0.00000000       2.01724138      -0.00000000      -0.00000000      -1.13127017      -0.00000000      -0.00000000      -0.68114429
2
Properties=species:S:1:pos:R:3:dft_forces:R:3:forces:R:3 dft_energy=-1041.9148546318495 energy=-1041.5966734494816 pbc="F F F"
C        0.00000000       0.00000000      -1.06379310      -0.00000000      -0.00000000       1.02823305      -0.00000000      -0.00000000       0.68114429
H        0.00000000       0.00000000       2.06379310      -0.00000000      -0.00000000      -1.02823305      -0.00000000      -0.00000000      -0.68114429
2
Properties=species:S:1:pos:R:3:dft_forces:R:3:forces:R:3 dft_energy=-1041.8227717075667 energy=-1041.5966734494816 pbc="F F F"
C        0.00000000       0.00000000      -1.11034483      -0.00000000      -0.00000000       0.93362883      -0.00000000      -0.00000000       0.68114429
H        0.00000000       0.00000000       2.11034483      -0.00000000      -0.00000000      -0.93362883      -0.00000000      -0.00000000      -0.68114429
2
Properties=species:S:1:pos:R:3:dft_forces:R:3:forces:R:3 dft_energy=-1041.7404496813128 energy=-1041.5966734494816 pbc="F F F"
C        0.00000000       0.00000000      -1.15689655      -0.00000000      -0.00000000       0.84619409      -0.00000000      -0.00000000       0.68114429
H        0.00000000       0.00000000       2.15689655      -0.00000000      -0.00000000      -0.84619409      -0.00000000      -0.00000000      -0.68114429
2
Properties=species:S:1:pos:R:3:dft_forces:R:3:forces:R:3 dft_energy=-1041.6639142886966 energy=-1041.5966734494816 pbc="F F F"
C        0.00000000       0.00000000      -1.20344828      -0.00000000      -0.00000000       0.75914365      -0.00000000      -0.00000000       0.68114429
H        0.00000000       0.00000000       2.20344828      -0.00000000      -0.00000000      -0.75914365      -0.00000000      -0.00000000      -0.68114429
2
Properties=species:S:1:pos:R:3:dft_forces:R:3:forces:R:3 dft_energy=-1041.5966734494816 energy=-1041.5966734494816 pbc="F F F"
C        0.00000000       0.00000000      -1.25000000      -0.00000000      -0.00000000       0.68114429      -0.00000000      -0.00000000       0.68114429
H        0.00000000       0.00000000       2.25000000      -0.00000000      -0.00000000      -0.68114429      -0.00000000      -0.00000000      -0.68114429
