2
Properties=species:S:1:pos:R:3:forces:R:3:dft_forces:R:3 energy=-26.228968446837452 free_energy=-26.228968446837452 dft_energy=-26.228968446837452 pbc="F F F"
H        0.00000000       0.00000000       0.30000000      -0.00000000      -0.00000000     -50.48074667      -0.00000000      -0.00000000     -50.48074667
H        0.00000000       0.00000000       0.70000000      -0.00000000      -0.00000000      50.48074667      -0.00000000      -0.00000000      50.48074667
2
Properties=species:S:1:pos:R:3:forces:R:3:dft_forces:R:3 energy=-29.682920439540627 free_energy=-29.682920439540627 dft_energy=-29.682920439540627 pbc="F F F"
H        0.00000000       0.00000000       0.25000000      -0.00000000      -0.00000000     -22.25329330      -0.00000000      -0.00000000     -22.25329330
H        0.00000000       0.00000000       0.75000000      -0.00000000      -0.00000000      22.25329330      -0.00000000      -0.00000000      22.25329330
2
Properties=species:S:1:pos:R:3:forces:R:3:dft_forces:R:3 energy=-31.158835706123888 free_energy=-31.158835706123888 dft_energy=-31.158835706123888 pbc="F F F"
H        0.00000000       0.00000000       0.20000000      -0.00000000      -0.00000000      -8.82241045      -0.00000000      -0.00000000      -8.82241045
H        0.00000000       0.00000000       0.80000000      -0.00000000      -0.00000000       8.82241045      -0.00000000      -0.00000000       8.82241045
2
Properties=species:S:1:pos:R:3:forces:R:3:dft_forces:R:3 energy=-31.662746628041962 free_energy=-31.662746628041962 dft_energy=-31.662746628041962 pbc="F F F"
H        0.00000000       0.00000000       0.15000000      -0.00000000      -0.00000000      -1.99792875      -0.00000000      -0.00000000      -1.99792875
H        0.00000000       0.00000000       0.85000000      -0.00000000      -0.00000000       1.99792875      -0.00000000      -0.00000000       1.99792875
2
Properties=species:S:1:pos:R:3:forces:R:3:dft_forces:R:3 energy=-31.665358476658096 free_energy=-31.665358476658096 dft_energy=-31.665358476658096 pbc="F F F"
H        0.00000000       0.00000000       0.10000000      -0.00000000      -0.00000000       1.56218140      -0.00000000      -0.00000000       1.56218140
H        0.00000000       0.00000000       0.90000000      -0.00000000      -0.00000000      -1.56218140      -0.00000000      -0.00000000      -1.56218140
2
Properties=species:S:1:pos:R:3:forces:R:3:dft_forces:R:3 energy=-31.407280744427982 free_energy=-31.407280744427982 dft_energy=-31.407280744427982 pbc="F F F"
H        0.00000000       0.00000000       0.05000000      -0.00000000      -0.00000000       3.39158126      -0.00000000      -0.00000000       3.39158126
H        0.00000000       0.00000000       0.95000000      -0.00000000      -0.00000000      -3.39158126      -0.00000000      -0.00000000      -3.39158126
2
Properties=species:S:1:pos:R:3:forces:R:3:dft_forces:R:3 energy=-31.01843589399576 free_energy=-31.01843589399576 dft_energy=-31.01843589399576 pbc="F F F"
H        0.00000000       0.00000000       0.00000000      -0.00000000      -0.00000000       4.27007216      -0.00000000      -0.00000000       4.27007216
H        0.00000000       0.00000000       1.00000000      -0.00000000      -0.00000000      -4.27007216      -0.00000000      -0.00000000      -4.27007216
2
Properties=species:S:1:pos:R:3:forces:R:3:dft_forces:R:3 energy=-30.570782572499 free_energy=-30.570782572499 dft_energy=-30.570782572499 pbc="F F F"
H        0.00000000       0.00000000      -0.05000000      -0.00000000      -0.00000000       4.61689430      -0.00000000      -0.00000000       4.61689430
H        0.00000000       0.00000000       1.05000000      -0.00000000      -0.00000000      -4.61689430      -0.00000000      -0.00000000      -4.61689430
2
Properties=species:S:1:pos:R:3:forces:R:3:dft_forces:R:3 energy=-30.104894703101202 free_energy=-30.104894703101202 dft_energy=-30.104894703101202 pbc="F F F"
H        0.00000000       0.00000000      -0.10000000      -0.00000000      -0.00000000       4.66338707      -0.00000000      -0.00000000       4.66338707
H        0.00000000       0.00000000       1.10000000      -0.00000000      -0.00000000      -4.66338707      -0.00000000      -0.00000000      -4.66338707
2
Properties=species:S:1:pos:R:3:forces:R:3:dft_forces:R:3 energy=-29.643700292282613 free_energy=-29.643700292282613 dft_energy=-29.643700292282613 pbc="F F F"
H        0.00000000       0.00000000      -0.15000000      -0.00000000      -0.00000000       4.53886340      -0.00000000      -0.00000000       4.53886340
H        0.00000000       0.00000000       1.15000000      -0.00000000      -0.00000000      -4.53886340      -0.00000000      -0.00000000      -4.53886340
2
Properties=species:S:1:pos:R:3:forces:R:3:dft_forces:R:3 energy=-29.200185346583766 free_energy=-29.200185346583766 dft_energy=-29.200185346583766 pbc="F F F"
H        0.00000000       0.00000000      -0.20000000      -0.00000000      -0.00000000       4.31958249      -0.00000000      -0.00000000       4.31958249
H        0.00000000       0.00000000       1.20000000      -0.00000000      -0.00000000      -4.31958249      -0.00000000      -0.00000000      -4.31958249
2
Properties=species:S:1:pos:R:3:forces:R:3:dft_forces:R:3 energy=-28.78142400038378 free_energy=-28.78142400038378 dft_energy=-28.78142400038378 pbc="F F F"
H        0.00000000       0.00000000      -0.25000000      -0.00000000      -0.00000000       4.05069865      -0.00000000      -0.00000000       4.05069865
H        0.00000000       0.00000000       1.25000000      -0.00000000      -0.00000000      -4.05069865      -0.00000000      -0.00000000      -4.05069865
2
Properties=species:S:1:pos:R:3:forces:R:3:dft_forces:R:3 energy=-28.39086287148947 free_energy=-28.39086287148947 dft_energy=-28.39086287148947 pbc="F F F"
H        0.00000000       0.00000000      -0.30000000      -0.00000000      -0.00000000       3.75819726      -0.00000000      -0.00000000       3.75819726
H        0.00000000       0.00000000       1.30000000      -0.00000000      -0.00000000      -3.75819726      -0.00000000      -0.00000000      -3.75819726
2
Properties=species:S:1:pos:R:3:forces:R:3:dft_forces:R:3 energy=-28.030015161565927 free_energy=-28.030015161565927 dft_energy=-28.030015161565927 pbc="F F F"
H        0.00000000       0.00000000      -0.35000000      -0.00000000      -0.00000000       3.45880754      -0.00000000      -0.00000000       3.45880754
H        0.00000000       0.00000000       1.35000000      -0.00000000      -0.00000000      -3.45880754      -0.00000000      -0.00000000      -3.45880754
2
Properties=species:S:1:pos:R:3:forces:R:3:dft_forces:R:3 energy=-27.699026705185023 free_energy=-27.699026705185023 dft_energy=-27.699026705185023 pbc="F F F"
H        0.00000000       0.00000000      -0.40000000      -0.00000000      -0.00000000       3.16238983      -0.00000000      -0.00000000       3.16238983
H        0.00000000       0.00000000       1.40000000      -0.00000000      -0.00000000      -3.16238983      -0.00000000      -0.00000000      -3.16238983
2
Properties=species:S:1:pos:R:3:forces:R:3:dft_forces:R:3 energy=-27.397211625664617 free_energy=-27.397211625664617 dft_energy=-27.397211625664617 pbc="F F F"
H        0.00000000       0.00000000      -0.45000000      -0.00000000      -0.00000000       2.87595158      -0.00000000      -0.00000000       2.87595158
H        0.00000000       0.00000000       1.45000000      -0.00000000      -0.00000000      -2.87595158      -0.00000000      -0.00000000      -2.87595158
2
Properties=species:S:1:pos:R:3:forces:R:3:dft_forces:R:3 energy=-27.123408722453195 free_energy=-27.123408722453195 dft_energy=-27.123408722453195 pbc="F F F"
H        0.00000000       0.00000000      -0.50000000      -0.00000000      -0.00000000       2.60261166      -0.00000000      -0.00000000       2.60261166
H        0.00000000       0.00000000       1.50000000      -0.00000000      -0.00000000      -2.60261166      -0.00000000      -0.00000000      -2.60261166
2
Properties=species:S:1:pos:R:3:forces:R:3:dft_forces:R:3 energy=-26.87610740270668 free_energy=-26.87610740270668 dft_energy=-26.87610740270668 pbc="F F F"
H        0.00000000       0.00000000      -0.55000000      -0.00000000      -0.00000000       2.34645640      -0.00000000      -0.00000000       2.34645640
H        0.00000000       0.00000000       1.55000000      -0.00000000      -0.00000000      -2.34645640      -0.00000000      -0.00000000      -2.34645640
2
Properties=species:S:1:pos:R:3:forces:R:3:dft_forces:R:3 energy=-26.653480876114518 free_energy=-26.653480876114518 dft_energy=-26.653480876114518 pbc="F F F"
H        0.00000000       0.00000000      -0.60000000      -0.00000000      -0.00000000       2.10853716      -0.00000000      -0.00000000       2.10853716
H        0.00000000       0.00000000       1.60000000      -0.00000000      -0.00000000      -2.10853716      -0.00000000      -0.00000000      -2.10853716
2
Properties=species:S:1:pos:R:3:forces:R:3:dft_forces:R:3 energy=-26.453730899102602 free_energy=-26.453730899102602 dft_energy=-26.453730899102602 pbc="F F F"
H        0.00000000       0.00000000      -0.65000000      -0.00000000      -0.00000000       1.88967636      -0.00000000      -0.00000000       1.88967636
H        0.00000000       0.00000000       1.65000000      -0.00000000      -0.00000000      -1.88967636      -0.00000000      -0.00000000      -1.88967636
2
Properties=species:S:1:pos:R:3:forces:R:3:dft_forces:R:3 energy=-26.274936286950318 free_energy=-26.274936286950318 dft_energy=-26.274936286950318 pbc="F F F"
H        0.00000000       0.00000000      -0.70000000      -0.00000000      -0.00000000       1.69037591      -0.00000000      -0.00000000       1.69037591
H        0.00000000       0.00000000       1.70000000      -0.00000000      -0.00000000      -1.69037591      -0.00000000      -0.00000000      -1.69037591
2
Properties=species:S:1:pos:R:3:forces:R:3:dft_forces:R:3 energy=-26.115063445566843 free_energy=-26.115063445566843 dft_energy=-26.115063445566843 pbc="F F F"
H        0.00000000       0.00000000      -0.75000000      -0.00000000      -0.00000000       1.50882848      -0.00000000      -0.00000000       1.50882848
H        0.00000000       0.00000000       1.75000000      -0.00000000      -0.00000000      -1.50882848      -0.00000000      -0.00000000      -1.50882848
2
Properties=species:S:1:pos:R:3:forces:R:3:dft_forces:R:3 energy=-25.972505304360723 free_energy=-25.972505304360723 dft_energy=-25.972505304360723 pbc="F F F"
H        0.00000000       0.00000000      -0.80000000      -0.00000000      -0.00000000       1.34549671      -0.00000000      -0.00000000       1.34549671
H        0.00000000       0.00000000       1.80000000      -0.00000000      -0.00000000      -1.34549671      -0.00000000      -0.00000000      -1.34549671
2
Properties=species:S:1:pos:R:3:forces:R:3:dft_forces:R:3 energy=-25.84558419535602 free_energy=-25.84558419535602 dft_energy=-25.84558419535602 pbc="F F F"
H        0.00000000       0.00000000      -0.85000000      -0.00000000      -0.00000000       1.19769186      -0.00000000      -0.00000000       1.19769186
H        0.00000000       0.00000000       1.85000000      -0.00000000      -0.00000000      -1.19769186      -0.00000000      -0.00000000      -1.19769186
2
Properties=species:S:1:pos:R:3:forces:R:3:dft_forces:R:3 energy=-25.732598094097323 free_energy=-25.732598094097323 dft_energy=-25.732598094097323 pbc="F F F"
H        0.00000000       0.00000000      -0.90000000      -0.00000000      -0.00000000       1.06415205      -0.00000000      -0.00000000       1.06415205
H        0.00000000       0.00000000       1.90000000      -0.00000000      -0.00000000      -1.06415205      -0.00000000      -0.00000000      -1.06415205
2
Properties=species:S:1:pos:R:3:forces:R:3:dft_forces:R:3 energy=-25.63249020344108 free_energy=-25.63249020344108 dft_energy=-25.63249020344108 pbc="F F F"
H        0.00000000       0.00000000      -0.95000000      -0.00000000      -0.00000000       0.94498047      -0.00000000      -0.00000000       0.94498047
H        0.00000000       0.00000000       1.95000000      -0.00000000      -0.00000000      -0.94498047      -0.00000000      -0.00000000      -0.94498047
2
Properties=species:S:1:pos:R:3:forces:R:3:dft_forces:R:3 energy=-25.543473991235636 free_energy=-25.543473991235636 dft_energy=-25.543473991235636 pbc="F F F"
H        0.00000000       0.00000000      -1.00000000      -0.00000000      -0.00000000       0.83728400      -0.00000000      -0.00000000       0.83728400
H        0.00000000       0.00000000       2.00000000      -0.00000000      -0.00000000      -0.83728400      -0.00000000      -0.00000000      -0.83728400
2
Properties=species:S:1:pos:R:3:forces:R:3:dft_forces:R:3 energy=-25.464694740783607 free_energy=-25.464694740783607 dft_energy=-25.464694740783607 pbc="F F F"
H        0.00000000       0.00000000      -1.05000000      -0.00000000      -0.00000000       0.73984510      -0.00000000      -0.00000000       0.73984510
H        0.00000000       0.00000000       2.05000000      -0.00000000      -0.00000000      -0.73984510      -0.00000000      -0.00000000      -0.73984510
2
Properties=species:S:1:pos:R:3:forces:R:3:dft_forces:R:3 energy=-25.395456814942744 free_energy=-25.395456814942744 dft_energy=-25.395456814942744 pbc="F F F"
H        0.00000000       0.00000000      -1.10000000      -0.00000000      -0.00000000       0.65295032      -0.00000000      -0.00000000       0.65295032
H        0.00000000       0.00000000       2.10000000      -0.00000000      -0.00000000      -0.65295032      -0.00000000      -0.00000000      -0.65295032
2
Properties=species:S:1:pos:R:3:forces:R:3:dft_forces:R:3 energy=-25.33416551000462 free_energy=-25.33416551000462 dft_energy=-25.33416551000462 pbc="F F F"
H        0.00000000       0.00000000      -1.15000000      -0.00000000      -0.00000000       0.57461415      -0.00000000      -0.00000000       0.57461415
H        0.00000000       0.00000000       2.15000000      -0.00000000      -0.00000000      -0.57461415      -0.00000000      -0.00000000      -0.57461415
2
Properties=species:S:1:pos:R:3:forces:R:3:dft_forces:R:3 energy=-25.28067401337255 free_energy=-25.28067401337255 dft_energy=-25.28067401337255 pbc="F F F"
H        0.00000000       0.00000000      -1.20000000      -0.00000000      -0.00000000       0.50607825      -0.00000000      -0.00000000       0.50607825
H        0.00000000       0.00000000       2.20000000      -0.00000000      -0.00000000      -0.50607825      -0.00000000      -0.00000000      -0.50607825
2
Properties=species:S:1:pos:R:3:forces:R:3:dft_forces:R:3 energy=-25.23327804820451 free_energy=-25.23327804820451 dft_energy=-25.23327804820451 pbc="F F F"
H        0.00000000       0.00000000      -1.25000000      -0.00000000      -0.00000000       0.44344046      -0.00000000      -0.00000000       0.44344046
H        0.00000000       0.00000000       2.25000000      -0.00000000      -0.00000000      -0.44344046      -0.00000000      -0.00000000      -0.44344046
