2
Properties=species:S:1:pos:R:3:forces:R:3:dft_forces:R:3 energy=-2040.2215119607258 free_energy=-2040.2215119607258 dft_energy=-2040.2215119607258 pbc="F F F"
C        0.00000000       0.00000000       0.10000000      -0.00000000      -0.00000000    -160.51907314      -0.00000000      -0.00000000    -160.51907314
C        0.00000000       0.00000000       0.90000000      -0.00000000      -0.00000000     160.51907314      -0.00000000      -0.00000000     160.51907314
2
Properties=species:S:1:pos:R:3:forces:R:3:dft_forces:R:3 energy=-2053.634189055238 free_energy=-2053.634189055238 dft_energy=-2053.634189055238 pbc="F F F"
C        0.00000000       0.00000000       0.04375000      -0.00000000      -0.00000000     -84.53112598      -0.00000000      -0.00000000     -84.53112598
C        0.00000000       0.00000000       0.95625000      -0.00000000      -0.00000000      84.53112598      -0.00000000      -0.00000000      84.53112598
2
Properties=species:S:1:pos:R:3:forces:R:3:dft_forces:R:3 energy=-2060.427842071027 free_energy=-2060.427842071027 dft_energy=-2060.427842071027 pbc="F F F"
C        0.00000000       0.00000000      -0.01250000      -0.00000000      -0.00000000     -40.35070272      -0.00000000      -0.00000000     -40.35070272
C        0.00000000       0.00000000       1.01250000      -0.00000000      -0.00000000      40.35070272      -0.00000000      -0.00000000      40.35070272
2
Properties=species:S:1:pos:R:3:forces:R:3:dft_forces:R:3 energy=-2063.431252063854 free_energy=-2063.431252063854 dft_energy=-2063.431252063854 pbc="F F F"
C        0.00000000       0.00000000      -0.06875000      -0.00000000      -0.00000000     -15.48317506      -0.00000000      -0.00000000     -15.48317506
C        0.00000000       0.00000000       1.06875000      -0.00000000      -0.00000000      15.48317506      -0.00000000      -0.00000000      15.48317506
2
Properties=species:S:1:pos:R:3:forces:R:3:dft_forces:R:3 energy=-2064.334857527082 free_energy=-2064.334857527082 dft_energy=-2064.334857527082 pbc="F F F"
C        0.00000000       0.00000000      -0.12500000      -0.00000000      -0.00000000      -2.01111728      -0.00000000      -0.00000000      -2.01111728
C        0.00000000       0.00000000       1.12500000      -0.00000000      -0.00000000       2.01111728      -0.00000000      -0.00000000       2.01111728
2
Properties=species:S:1:pos:R:3:forces:R:3:dft_forces:R:3 energy=-2064.1313316023716 free_energy=-2064.1313316023716 dft_energy=-2064.1313316023716 pbc="F F F"
C        0.00000000       0.00000000      -0.18125000      -0.00000000      -0.00000000       4.79612644      -0.00000000      -0.00000000       4.79612644
C        0.00000000       0.00000000       1.18125000      -0.00000000      -0.00000000      -4.79612644      -0.00000000      -0.00000000      -4.79612644
2
Properties=species:S:1:pos:R:3:forces:R:3:dft_forces:R:3 energy=-2062.8474029062563 free_energy=-2062.8474029062563 dft_energy=-2062.8474029062563 pbc="F F F"
C        0.00000000       0.00000000      -0.23750000      -0.00000000      -0.00000000       1.08093070      -0.00000000      -0.00000000       1.08093070
C        0.00000000       0.00000000       1.23750000      -0.00000000      -0.00000000      -1.08093070      -0.00000000      -0.00000000      -1.08093070
2
Properties=species:S:1:pos:R:3:forces:R:3:dft_forces:R:3 energy=-2062.5873829697357 free_energy=-2062.5873829697357 dft_energy=-2062.5873829697357 pbc="F F F"
C        0.00000000       0.00000000      -0.29375000      -0.00000000      -0.00000000       3.26302355      -0.00000000      -0.00000000       3.26302355
C        0.00000000       0.00000000       1.29375000      -0.00000000      -0.00000000      -3.26302355      -0.00000000      -0.00000000      -3.26302355
2
Properties=species:S:1:pos:R:3:forces:R:3:dft_forces:R:3 energy=-2062.1592866392384 free_energy=-2062.1592866392384 dft_energy=-2062.1592866392384 pbc="F F F"
C        0.00000000       0.00000000      -0.35000000      -0.00000000      -0.00000000       4.20332892      -0.00000000      -0.00000000       4.20332892
C        0.00000000       0.00000000       1.35000000      -0.00000000      -0.00000000      -4.20332892      -0.00000000      -0.00000000      -4.20332892
2
Properties=species:S:1:pos:R:3:forces:R:3:dft_forces:R:3 energy=-2061.6646151730774 free_energy=-2061.6646151730774 dft_energy=-2061.6646151730774 pbc="F F F"
C        0.00000000       0.00000000      -0.40625000      -0.00000000      -0.00000000       4.51837267      -0.00000000      -0.00000000       4.51837267
C        0.00000000       0.00000000       1.40625000      -0.00000000      -0.00000000      -4.51837267      -0.00000000      -0.00000000      -4.51837267
2
Properties=species:S:1:pos:R:3:forces:R:3:dft_forces:R:3 energy=-2061.1537593791404 free_energy=-2061.1537593791404 dft_energy=-2061.1537593791404 pbc="F F F"
C        0.00000000       0.00000000      -0.46250000      -0.00000000      -0.00000000       4.52965408      -0.00000000      -0.00000000       4.52965408
C        0.00000000       0.00000000       1.46250000      -0.00000000      -0.00000000      -4.52965408      -0.00000000      -0.00000000      -4.52965408
2
Properties=species:S:1:pos:R:3:forces:R:3:dft_forces:R:3 energy=-2060.65038229104 free_energy=-2060.65038229104 dft_energy=-2060.65038229104 pbc="F F F"
C        0.00000000       0.00000000      -0.51875000      -0.00000000      -0.00000000       4.39275640      -0.00000000      -0.00000000       4.39275640
C        0.00000000       0.00000000       1.51875000      -0.00000000      -0.00000000      -4.39275640      -0.00000000      -0.00000000      -4.39275640
2
Properties=species:S:1:pos:R:3:forces:R:3:dft_forces:R:3 energy=-2060.167072770912 free_energy=-2060.167072770912 dft_energy=-2060.167072770912 pbc="F F F"
C        0.00000000       0.00000000      -0.57500000      -0.00000000      -0.00000000       4.17823539      -0.00000000      -0.00000000       4.17823539
C        0.00000000       0.00000000       1.57500000      -0.00000000      -0.00000000      -4.17823539      -0.00000000      -0.00000000      -4.17823539
2
Properties=species:S:1:pos:R:3:forces:R:3:dft_forces:R:3 energy=-2059.7112527518216 free_energy=-2059.7112527518216 dft_energy=-2059.7112527518216 pbc="F F F"
C        0.00000000       0.00000000      -0.63125000      -0.00000000      -0.00000000       3.91739838      -0.00000000      -0.00000000       3.91739838
C        0.00000000       0.00000000       1.63125000      -0.00000000      -0.00000000      -3.91739838      -0.00000000      -0.00000000      -3.91739838
2
Properties=species:S:1:pos:R:3:forces:R:3:dft_forces:R:3 energy=-2059.2859700356503 free_energy=-2059.2859700356503 dft_energy=-2059.2859700356503 pbc="F F F"
C        0.00000000       0.00000000      -0.68750000      -0.00000000      -0.00000000       3.62651727      -0.00000000      -0.00000000       3.62651727
C        0.00000000       0.00000000       1.68750000      -0.00000000      -0.00000000      -3.62651727      -0.00000000      -0.00000000      -3.62651727
2
Properties=species:S:1:pos:R:3:forces:R:3:dft_forces:R:3 energy=-2058.894832336516 free_energy=-2058.894832336516 dft_energy=-2058.894832336516 pbc="F F F"
C        0.00000000       0.00000000      -0.74375000      -0.00000000      -0.00000000       3.31932823      -0.00000000      -0.00000000       3.31932823
C        0.00000000       0.00000000       1.74375000      -0.00000000      -0.00000000      -3.31932823      -0.00000000      -0.00000000      -3.31932823
2
Properties=species:S:1:pos:R:3:forces:R:3:dft_forces:R:3 energy=-2058.5376585917443 free_energy=-2058.5376585917443 dft_energy=-2058.5376585917443 pbc="F F F"
C        0.00000000       0.00000000      -0.80000000      -0.00000000      -0.00000000       3.00747747      -0.00000000      -0.00000000       3.00747747
C        0.00000000       0.00000000       1.80000000      -0.00000000      -0.00000000      -3.00747747      -0.00000000      -0.00000000      -3.00747747
2
Properties=species:S:1:pos:R:3:forces:R:3:dft_forces:R:3 energy=-2058.2161095204833 free_energy=-2058.2161095204833 dft_energy=-2058.2161095204833 pbc="F F F"
C        0.00000000       0.00000000      -0.85625000      -0.00000000      -0.00000000       2.70346551      -0.00000000      -0.00000000       2.70346551
C        0.00000000       0.00000000       1.85625000      -0.00000000      -0.00000000      -2.70346551      -0.00000000      -0.00000000      -2.70346551
2
Properties=species:S:1:pos:R:3:forces:R:3:dft_forces:R:3 energy=-2057.9276841071623 free_energy=-2057.9276841071623 dft_energy=-2057.9276841071623 pbc="F F F"
C        0.00000000       0.00000000      -0.91250000      -0.00000000      -0.00000000       2.41594879      -0.00000000      -0.00000000       2.41594879
C        0.00000000       0.00000000       1.91250000      -0.00000000      -0.00000000      -2.41594879      -0.00000000      -0.00000000      -2.41594879
2
Properties=species:S:1:pos:R:3:forces:R:3:dft_forces:R:3 energy=-2057.6704165059473 free_energy=-2057.6704165059473 dft_energy=-2057.6704165059473 pbc="F F F"
C        0.00000000       0.00000000      -0.96875000      -0.00000000      -0.00000000       2.15100623      -0.00000000      -0.00000000       2.15100623
C        0.00000000       0.00000000       1.96875000      -0.00000000      -0.00000000      -2.15100623      -0.00000000      -0.00000000      -2.15100623
2
Properties=species:S:1:pos:R:3:forces:R:3:dft_forces:R:3 energy=-2057.4421180043873 free_energy=-2057.4421180043873 dft_energy=-2057.4421180043873 pbc="F F F"
C        0.00000000       0.00000000      -1.02500000      -0.00000000      -0.00000000       1.91233845      -0.00000000      -0.00000000       1.91233845
C        0.00000000       0.00000000       2.02500000      -0.00000000      -0.00000000      -1.91233845      -0.00000000      -0.00000000      -1.91233845
2
Properties=species:S:1:pos:R:3:forces:R:3:dft_forces:R:3 energy=-2057.239093114998 free_energy=-2057.239093114998 dft_energy=-2057.239093114998 pbc="F F F"
C        0.00000000       0.00000000      -1.08125000      -0.00000000      -0.00000000       1.69852358      -0.00000000      -0.00000000       1.69852358
C        0.00000000       0.00000000       2.08125000      -0.00000000      -0.00000000      -1.69852358      -0.00000000      -0.00000000      -1.69852358
2
Properties=species:S:1:pos:R:3:forces:R:3:dft_forces:R:3 energy=-2057.059313712401 free_energy=-2057.059313712401 dft_energy=-2057.059313712401 pbc="F F F"
C        0.00000000       0.00000000      -1.13750000      -0.00000000      -0.00000000       1.50823751      -0.00000000      -0.00000000       1.50823751
C        0.00000000       0.00000000       2.13750000      -0.00000000      -0.00000000      -1.50823751      -0.00000000      -0.00000000      -1.50823751
2
Properties=species:S:1:pos:R:3:forces:R:3:dft_forces:R:3 energy=-2056.8992795865743 free_energy=-2056.8992795865743 dft_energy=-2056.8992795865743 pbc="F F F"
C        0.00000000       0.00000000      -1.19375000      -0.00000000      -0.00000000       1.33931706      -0.00000000      -0.00000000       1.33931706
C        0.00000000       0.00000000       2.19375000      -0.00000000      -0.00000000      -1.33931706      -0.00000000      -0.00000000      -1.33931706
2
Properties=species:S:1:pos:R:3:forces:R:3:dft_forces:R:3 energy=-2056.7579791413855 free_energy=-2056.7579791413855 dft_energy=-2056.7579791413855 pbc="F F F"
C        0.00000000       0.00000000      -1.25000000      -0.00000000      -0.00000000       1.18773287      -0.00000000      -0.00000000       1.18773287
C        0.00000000       0.00000000       2.25000000      -0.00000000      -0.00000000      -1.18773287      -0.00000000      -0.00000000      -1.18773287
