! UKS B3LYP def2-SV(P) def2/J D3BJ OptTS NumFreq 

%scf Convergence VeryTight
SmearTemp 2000 
maxiter 500
end


*xyz 0 2
  C   1.66262362664420      0.44555866714403     -2.60381786697411
  O   0.29879843235148      0.33407151534156     -2.37724994682980
  H   1.79272407436981      0.64716494511364     -3.68838449188616
  H   0.12161971863307      0.15519292350426     -1.15286840653068
  H   2.13825169262000      1.29296199987269     -2.05940081478629
  H   2.23426978745164     -0.48305436640336     -2.37572372600507
  C   0.00301520626523     -0.01428696529900      0.07989659150225
  C   0.45906610238729      1.29646631912614      0.69410653485135
  C   -1.48412671289982     -0.28649284973288      0.22308085279299
  C   0.88812799215724     -1.20344326943454      0.40393498026847
  H   -0.13949340703342      2.14483881872765      0.31774661710841
  H   1.52243329255176      1.50148128211970      0.47449881539884
  H   0.34797257032316      1.26853188654559      1.79875958992051
  H   -1.74730238695264     -0.45352182835519      1.28864634413444
  H   -2.08651372868594      0.56464486192522     -0.14179729552575
  H   -1.78486217667104     -1.18683189967624     -0.34174567655403
  H   0.80615578287859     -1.46753520870450      1.47915920314296
  H   1.95229755161614     -0.98890478551970      0.19759351985061
  H   0.59573217199324     -2.09323642629505     -0.18178262387895
*

