20
Coordinates from ORCA-job orca2 E -236.706074225780
  C      -1.936927      1.005417      0.219228
  C      -1.295805      0.059860     -0.757569
  C      -0.727391     -1.175164     -0.123974
  C       0.462594     -0.919945      0.753015
  C       1.672798     -0.519441     -0.045098
  C       1.907166      0.973554     -0.018327
  H      -2.455116      1.780163     -0.382024
  H      -2.677288      0.455369      0.822928
  H      -1.227365      1.503427      0.895304
  H      -2.109497     -0.287299     -1.444273
  H      -0.547537      0.552544     -1.396232
  H      -1.509653     -1.733032      0.414869
  H      -0.367900     -1.820634     -0.965318
  H       0.690802     -1.875447      1.277704
  H       0.200547     -0.193290      1.539384
  H       1.528170     -0.863298     -1.094525
  H       2.572024     -1.040392      0.357481
  H       2.213712      1.340071     -1.024507
  H       0.954442      1.492767      0.213315
  H       2.652224      1.264770      0.758618
20
Coordinates from ORCA-job orca2 E -236.714731259843
  C      -2.005970      1.025581      0.207119
  C      -1.385098      0.035497     -0.778111
  C      -0.758421     -1.207655     -0.138322
  C       0.477185     -0.961084      0.740195
  C       1.729952     -0.510614     -0.036481
  C       1.995635      1.008317     -0.007158
  H      -2.544852      1.807321     -0.360214
  H      -2.731578      0.502940      0.856931
  H      -1.266320      1.528670      0.853645
  H      -2.202189     -0.315235     -1.442175
  H      -0.655683      0.531994     -1.443637
  H      -1.531422     -1.757188      0.431221
  H      -0.439796     -1.875576     -0.964826
  H       0.701794     -1.913857      1.259998
  H       0.225093     -0.244104      1.542835
  H       1.631910     -0.847753     -1.084564
  H       2.614138     -1.033753      0.371775
  H       2.384783      1.372212     -0.975851
  H       1.060371      1.566419      0.171985
  H       2.700469      1.287869      0.795633
20
Coordinates from ORCA-job orca2 E -236.716314914276
  C      -1.945765      1.040890      0.212440
  C      -1.376420      0.025345     -0.786060
  C      -0.763974     -1.233884     -0.148179
  C       0.475091     -1.002198      0.737469
  C       1.723124     -0.505383     -0.029569
  C       1.925064      1.027747     -0.021181
  H      -2.458802      1.860122     -0.322707
  H      -2.684256      0.553778      0.877039
  H      -1.168479      1.498135      0.851322
  H      -2.200369     -0.296045     -1.450820
  H      -0.631832      0.510017     -1.447209
  H      -1.544948     -1.758144      0.436065
  H      -0.471823     -1.922419     -0.964148
  H       0.708504     -1.955763      1.245337
  H       0.223321     -0.292655      1.549262
  H       1.661851     -0.860739     -1.074384
  H       2.620611     -0.987294      0.395094
  H       2.385504      1.386915     -0.957871
  H       0.961825      1.559910      0.078189
  H       2.561773      1.351666      0.819911
20
Coordinates from ORCA-job orca2 E -236.717230839128
  C      -1.933883      1.042251      0.222300
  C      -1.376709      0.029013     -0.785478
  C      -0.764728     -1.234659     -0.151941
  C       0.478734     -1.018805      0.732336
  C       1.725163     -0.504477     -0.027216
  C       1.895317      1.030097     -0.042348
  H      -2.433034      1.885034     -0.288409
  H      -2.680342      0.566074      0.886811
  H      -1.144980      1.469639      0.865425
  H      -2.195315     -0.280919     -1.460598
  H      -0.624586      0.520557     -1.432950
  H      -1.546750     -1.742675      0.446458
  H      -0.494514     -1.938228     -0.961936
  H       0.715361     -1.977106      1.227296
  H       0.237171     -0.316289      1.553690
  H       1.692652     -0.880311     -1.067324
  H       2.627505     -0.959536      0.417841
  H       2.447680      1.374094     -0.934725
  H       0.923077      1.551762     -0.043164
  H       2.452181      1.384483      0.843931
20
Coordinates from ORCA-job orca2 E -236.717969450823
  C      -1.937605      1.040298      0.228182
  C      -1.386765      0.030970     -0.783610
  C      -0.766395     -1.227004     -0.150524
  C       0.484532     -1.021753      0.722962
  C       1.729447     -0.502133     -0.031619
  C       1.889562      1.028424     -0.054101
  H      -2.434294      1.892888     -0.268748
  H      -2.682971      0.569311      0.897811
  H      -1.140267      1.455129      0.868828
  H      -2.203541     -0.282497     -1.459566
  H      -0.638886      0.529110     -1.429964
  H      -1.543450     -1.724047      0.464372
  H      -0.515293     -1.943502     -0.955652
  H       0.724136     -1.987726      1.201413
  H       0.257230     -0.329386      1.557065
  H       1.713532     -0.889402     -1.068885
  H       2.632913     -0.943826      0.426776
  H       2.534357      1.360176     -0.888214
  H       0.923365      1.549410     -0.153893
  H       2.360393      1.395560      0.877368
20
Coordinates from ORCA-job orca2 E -236.718620612268
  C      -1.938472      1.040585      0.232234
  C      -1.396384      0.030796     -0.780140
  C      -0.768477     -1.219463     -0.145796
  C       0.490508     -1.021098      0.713144
  C       1.731999     -0.498865     -0.039575
  C       1.888145      1.027047     -0.059049
  H      -2.436724      1.894535     -0.261339
  H      -2.678587      0.574145      0.910630
  H      -1.133046      1.453231      0.864864
  H      -2.216940     -0.291700     -1.448144
  H      -0.658581      0.529659     -1.436743
  H      -1.538938     -1.709602      0.483290
  H      -0.531882     -1.944999     -0.947992
  H       0.733493     -1.996389      1.172125
  H       0.275607     -0.342412      1.561626
  H       1.723241     -0.890430     -1.075826
  H       2.636833     -0.932719      0.425452
  H       2.614861      1.350397     -0.826991
  H       0.936817      1.548218     -0.254115
  H       2.266527      1.399063      0.912344
20
Coordinates from ORCA-job orca2 E -236.719178197739
  C      -1.931418      1.044226      0.239032
  C      -1.399715      0.031442     -0.774306
  C      -0.770206     -1.216181     -0.140879
  C       0.495495     -1.023261      0.706541
  C       1.732608     -0.496429     -0.046238
  C       1.881303      1.027291     -0.064946
  H      -2.428773      1.897604     -0.256781
  H      -2.668380      0.581373      0.922965
  H      -1.119929      1.456128      0.865061
  H      -2.227108     -0.296139     -1.432087
  H      -0.670648      0.526383     -1.443378
  H      -1.536339     -1.703256      0.495788
  H      -0.542282     -1.944654     -0.943504
  H       0.741723     -2.007236      1.146381
  H       0.287441     -0.359547      1.568348
  H       1.727550     -0.890899     -1.081469
  H       2.640000     -0.920971      0.423233
  H       2.677199      1.344488     -0.763698
  H       0.950963      1.542722     -0.356341
  H       2.160517      1.406916      0.936277
20
Coordinates from ORCA-job orca2 E -236.719596441487
  C      -1.915222      1.050721      0.248084
  C      -1.400210      0.031329     -0.768061
  C      -0.772517     -1.218839     -0.138179
  C       0.498861     -1.029861      0.702602
  C       1.731672     -0.493906     -0.049756
  C       1.868151      1.030525     -0.072031
  H      -2.408735      1.904755     -0.250416
  H      -2.650712      0.592950      0.936710
  H      -1.096336      1.458995      0.866935
  H      -2.238466     -0.294807     -1.412959
  H      -0.678093      0.517859     -1.450440
  H      -1.536617     -1.705369      0.500943
  H      -0.549091     -1.945573     -0.943758
  H       0.749408     -2.020304      1.125844
  H       0.292255     -0.380525      1.575514
  H       1.730622     -0.890949     -1.083908
  H       2.642261     -0.906735      0.423932
  H       2.723268      1.345017     -0.697997
  H       0.966290      1.533159     -0.460816
  H       2.043211      1.421557      0.947757
20
Coordinates from ORCA-job orca2 E -236.719850155191
  C      -1.891034      1.058142      0.258137
  C      -1.401976      0.029143     -0.762923
  C      -0.775535     -1.225987     -0.139290
  C       0.499708     -1.039708      0.699455
  C       1.729166     -0.490232     -0.049498
  C       1.850096      1.036496     -0.079868
  H      -2.380242      1.915331     -0.238978
  H      -2.623762      0.608721      0.955088
  H      -1.060153      1.458697      0.865410
  H      -2.255214     -0.290386     -1.391075
  H      -0.686743      0.504501     -1.459982
  H      -1.538569     -1.713925      0.499648
  H      -0.554045     -1.948338     -0.949103
  H       0.756156     -2.034122      1.109419
  H       0.290756     -0.403077      1.581041
  H       1.735767     -0.890524     -1.082350
  H       2.642274     -0.889649      0.430314
  H       2.758039      1.351205     -0.626184
  H       0.986721      1.521527     -0.565889
  H       1.918589      1.442184      0.946623
20
Coordinates from ORCA-job orca2 E -236.719914805953
  C      -1.870485      1.063075      0.268014
  C      -1.404705      0.028063     -0.759032
  C      -0.777201     -1.231743     -0.144007
  C       0.498149     -1.047800      0.696853
  C       1.727312     -0.487787     -0.045494
  C       1.834894      1.040735     -0.088728
  H      -2.359702      1.923281     -0.223692
  H      -2.597721      0.619729      0.974668
  H      -1.028242      1.457562      0.862911
  H      -2.270810     -0.284577     -1.372616
  H      -0.695821      0.496079     -1.467464
  H      -1.539629     -1.724295      0.491973
  H      -0.554459     -1.947676     -0.958952
  H       0.758767     -2.043883      1.099652
  H       0.285069     -0.418976      1.582983
  H       1.745651     -0.894030     -1.075940
  H       2.640010     -0.875337      0.444255
  H       2.779159      1.356121     -0.569134
  H       1.008545      1.508851     -0.649460
  H       1.821218      1.462605      0.933211
20
Coordinates from ORCA-job orca2 E -236.719924388639
  C      -1.869948      1.063253      0.269025
  C      -1.404820      0.028843     -0.758863
  C      -0.776368     -1.231766     -0.146213
  C       0.496989     -1.048339      0.697350
  C       1.727484     -0.488503     -0.042900
  C       1.834459      1.040240     -0.089808
  H      -2.362611      1.922263     -0.221354
  H      -2.594557      0.618957      0.977844
  H      -1.027282      1.460119      0.861577
  H      -2.271805     -0.283200     -1.371502
  H      -0.696557      0.497409     -1.467613
  H      -1.539201     -1.727603      0.486739
  H      -0.550921     -1.944728     -0.963031
  H       0.757134     -2.043825      1.101852
  H       0.282280     -0.418441      1.582324
  H       1.748259     -0.896542     -1.072603
  H       2.638998     -0.875699      0.449259
  H       2.776907      1.354932     -0.574116
  H       1.005968      1.506707     -0.648665
  H       1.825592      1.465923      0.930698
20
Coordinates from ORCA-job orca2 E -236.719935682698
  C      -1.868068      1.063534      0.273030
  C      -1.407655      0.030695     -0.758310
  C      -0.774793     -1.231266     -0.152744
  C       0.493803     -1.048610      0.697336
  C       1.728831     -0.489780     -0.036139
  C       1.834430      1.038552     -0.093321
  H      -2.371780      1.918765     -0.212807
  H      -2.582910      0.616423      0.990092
  H      -1.022372      1.467271      0.856413
  H      -2.278460     -0.280705     -1.365814
  H      -0.703558      0.500567     -1.470305
  H      -1.537713     -1.736312      0.472779
  H      -0.542587     -1.936143     -0.974738
  H       0.752382     -2.043034      1.105207
  H       0.274843     -0.416910      1.580089
  H       1.758325     -0.903443     -1.063510
  H       2.636674     -0.874344      0.464827
  H       2.778160      1.350342     -0.577190
  H       1.007176      1.499982     -0.657882
  H       1.825270      1.474416      0.922984
20
Coordinates from ORCA-job orca2 E -236.719938533014
  C      -1.867119      1.063599      0.275496
  C      -1.408614      0.032149     -0.757996
  C      -0.774130     -1.230524     -0.155522
  C       0.492675     -1.048441      0.697082
  C       1.729847     -0.490563     -0.033394
  C       1.833796      1.037350     -0.095817
  H      -2.375661      1.917292     -0.208069
  H      -2.577346      0.614564      0.995966
  H      -1.020004      1.470002      0.854998
  H      -2.280670     -0.279026     -1.363821
  H      -0.706320      0.503113     -1.471081
  H      -1.537059     -1.739017      0.467174
  H      -0.539619     -1.932304     -0.979542
  H       0.750006     -2.042913      1.105679
  H       0.272169     -0.416465      1.579279
  H       1.764155     -0.907775     -1.059198
  H       2.636094     -0.872262      0.472685
  H       2.779375      1.348241     -0.576738
  H       1.008485      1.495631     -0.665822
  H       1.819943      1.477349      0.918640
20
Coordinates from ORCA-job orca2 E -236.719942699900
  C      -1.866354      1.063638      0.280137
  C      -1.410571      0.035239     -0.757498
  C      -0.773048     -1.228572     -0.160284
  C       0.491149     -1.047985      0.696334
  C       1.732258     -0.492240     -0.028740
  C       1.833149      1.035061     -0.100922
  H      -2.383740      1.914505     -0.199069
  H      -2.567867      0.610437      1.006539
  H      -1.016809      1.474774      0.852743
  H      -2.284229     -0.275850     -1.361058
  H      -0.711546      0.508826     -1.472000
  H      -1.535852     -1.742353      0.458169
  H      -0.535365     -1.925626     -0.987442
  H       0.745685     -2.043095      1.105279
  H       0.268562     -0.416134      1.578101
  H       1.775822     -0.916819     -1.051182
  H       2.635447     -0.867769      0.487452
  H       2.782702      1.344599     -0.574917
  H       1.012357      1.487522     -0.681983
  H       1.808251      1.481842      0.910340
