! UKS B3LYP def2-SV(P) def2/J D3BJ Opt
%scf Convergence VeryTight
SmearTemp 2000
maxiter 500
end
*xyz 0 1
C -1.936927 1.005417 0.219228
C -1.295805 0.05986 -0.757569
C -0.727391 -1.175164 -0.123974
C 0.462594 -0.919945 0.753015
C 1.672798 -0.519441 -0.045098
C 1.907166 0.973554 -0.018327
H -2.455116 1.780163 -0.382024
H -2.677288 0.455369 0.822928
H -1.227365 1.503427 0.895304
H -2.109497 -0.287299 -1.444273
H -0.547537 0.552544 -1.396232
H -1.509653 -1.733032 0.414869
H -0.3679 -1.820634 -0.965318
H 0.690802 -1.875447 1.277704
H 0.200547 -0.19329 1.539384
H 1.52817 -0.863298 -1.094525
H 2.572024 -1.040392 0.357481
H 2.213712 1.340071 -1.024507
H 0.954442 1.492767 0.213315
H 2.652224 1.26477 0.758618
*
