20
Coordinates from ORCA-job orca7 E -236.688506699806
  C      -2.890746      0.159205      0.703902
  C      -1.696904     -0.198903     -0.139813
  C      -0.453626      0.440486      0.446086
  C       0.595706      0.422875     -0.630032
  C       1.565464     -0.718612     -0.500640
  C       2.898669     -0.143204     -0.038607
  H      -3.464535      0.986465      0.257642
  H      -2.536528      0.499587      1.698733
  H      -3.496564     -0.775203      0.797601
  H      -1.866882      0.204315     -1.155587
  H      -1.526998     -1.282493     -0.200693
  H      -0.059396     -0.173947      1.294265
  H      -0.742944      1.460445      0.763600
  H       1.106673      1.416744     -0.600426
  H       0.108529      0.377077     -1.637025
  H       1.658647     -1.249014     -1.459398
  H       1.266498     -1.466160      0.254504
  H       2.625282      0.639233      0.714072
  H       3.360627      0.310718     -0.939795
  H       3.549027     -0.909614      0.422445
20
Coordinates from ORCA-job orca7 E -236.705416345507
  C      -3.004741      0.133938      0.758545
  C      -1.780571     -0.201579     -0.118365
  C      -0.483754      0.472401      0.385373
  C       0.632147      0.459927     -0.681682
  C       1.638793     -0.690353     -0.530836
  C       3.008338     -0.179884     -0.020043
  H      -3.612036      0.939251      0.312359
  H      -2.674774      0.491393      1.750787
  H      -3.617608     -0.778738      0.892031
  H      -1.977015      0.157794     -1.143225
  H      -1.606866     -1.290977     -0.160453
  H      -0.103409     -0.098971      1.254378
  H      -0.753891      1.500075      0.685449
  H       1.146233      1.442362     -0.646870
  H       0.180565      0.416299     -1.691817
  H       1.756122     -1.211626     -1.496979
  H       1.287333     -1.448198      0.194464
  H       2.804762      0.580485      0.757578
  H       3.537244      0.292360     -0.867881
  H       3.623128     -0.985959      0.418020
20
Coordinates from ORCA-job orca7 E -236.709549462635
  C      -3.006797      0.101470      0.787089
  C      -1.785184     -0.201611     -0.114169
  C      -0.494174      0.516905      0.342554
  C       0.636989      0.486431     -0.715584
  C       1.642271     -0.674877     -0.544656
  C       3.011154     -0.208096      0.003962
  H      -3.637765      0.898350      0.356115
  H      -2.681893      0.450231      1.784593
  H      -3.625077     -0.800717      0.931460
  H      -2.005551      0.120164     -1.148390
  H      -1.593565     -1.290105     -0.145062
  H      -0.121930      0.009654      1.251580
  H      -0.757499      1.557101      0.603914
  H       1.171168      1.454250     -0.687222
  H       0.189973      0.438600     -1.725778
  H       1.784475     -1.191746     -1.510786
  H       1.237081     -1.433638      0.151739
  H       2.843986      0.518643      0.819473
  H       3.585387      0.295323     -0.794550
  H       3.606950     -1.046333      0.404550
20
Coordinates from ORCA-job orca7 E -236.711846392497
  C      -2.979244      0.071622      0.810766
  C      -1.770472     -0.202119     -0.112469
  C      -0.497772      0.561276      0.301974
  C       0.636637      0.511051     -0.748353
  C       1.628955     -0.663396     -0.558648
  C       2.981870     -0.233554      0.033719
  H      -3.631099      0.863188      0.399165
  H      -2.650315      0.409341      1.811004
  H      -3.600213     -0.828267      0.961422
  H      -2.018691      0.081714     -1.152210
  H      -1.553835     -1.287259     -0.132556
  H      -0.126997      0.120080      1.246903
  H      -0.764420      1.610818      0.524297
  H       1.192083      1.466636     -0.725776
  H       0.190826      0.459641     -1.758789
  H       1.799428     -1.174040     -1.524076
  H       1.175604     -1.423691      0.105936
  H       2.830416      0.456624      0.884622
  H       3.594787      0.298838     -0.716689
  H       3.562449     -1.098503      0.400592
20
Coordinates from ORCA-job orca7 E -236.713496940172
  C      -2.939165      0.045688      0.833355
  C      -1.746525     -0.203236     -0.109952
  C      -0.496081      0.604931      0.263546
  C       0.635208      0.532461     -0.781688
  C       1.607327     -0.656398     -0.575566
  C       2.937534     -0.257253      0.069163
  H      -3.607082      0.835929      0.444181
  H      -2.600059      0.370648      1.834603
  H      -3.557535     -0.856946      0.983447
  H      -2.025733      0.045079     -1.151513
  H      -1.498108     -1.282263     -0.118624
  H      -0.119279      0.227740      1.235020
  H      -0.777655      1.659674      0.444264
  H       1.209809      1.477072     -0.765121
  H       0.189134      0.478273     -1.792141
  H       1.807960     -1.156528     -1.540982
  H       1.113747     -1.420708      0.055047
  H       2.779063      0.391091      0.951929
  H       3.579140      0.306551     -0.633677
  H       3.508300     -1.141802      0.405543
20
Coordinates from ORCA-job orca7 E -236.714950546964
  C      -2.896446      0.024674      0.857212
  C      -1.720835     -0.205212     -0.105645
  C      -0.490894      0.644276      0.226496
  C       0.634749      0.549009     -0.816519
  C       1.584992     -0.653026     -0.596238
  C       2.887499     -0.277844      0.108074
  H      -3.572894      0.820073      0.493453
  H      -2.542849      0.332129      1.859108
  H      -3.512661     -0.881353      0.999575
  H      -2.031778      0.011517     -1.145732
  H      -1.440300     -1.276442     -0.103388
  H      -0.102998      0.326049      1.215826
  H      -0.793403      1.700534      0.364727
  H       1.226291      1.483651     -0.805808
  H       0.187555      0.493011     -1.826699
  H       1.819457     -1.138245     -1.561682
  H       1.058351     -1.424229     -0.001656
  H       2.702463      0.325944      1.017283
  H       3.549446      0.320280     -0.546357
  H       3.454253     -1.174796      0.418804
20
Coordinates from ORCA-job orca7 E -236.716333182510
  C      -2.855451      0.008773      0.882903
  C      -1.696604     -0.208147     -0.099127
  C      -0.483519      0.677925      0.191237
  C       0.635697      0.560326     -0.852432
  C       1.566144     -0.652168     -0.620636
  C       2.836045     -0.295055      0.148556
  H      -3.531645      0.816376      0.546592
  H      -2.484619      0.292644      1.885648
  H      -3.473200     -0.898683      1.010934
  H      -2.038088     -0.018664     -1.135269
  H      -1.386953     -1.270979     -0.086142
  H      -0.081613      0.412626      1.191217
  H      -0.809333      1.732460      0.286972
  H       1.241491      1.486258     -0.847665
  H       0.186438      0.503016     -1.861873
  H       1.838916     -1.117525     -1.585647
  H       1.012986     -1.433936     -0.064822
  H       2.608281      0.262972      1.077110
  H       3.511028      0.339816     -0.456065
  H       3.403998     -1.198034      0.439345
20
Coordinates from ORCA-job orca7 E -236.717598260729
  C      -2.819804     -0.002020      0.909708
  C      -1.676004     -0.212927     -0.089766
  C      -0.476676      0.705579      0.158477
  C       0.637479      0.567483     -0.887481
  C       1.554348     -0.651414     -0.647568
  C       2.788123     -0.310003      0.187989
  H      -3.486453      0.823865      0.600093
  H      -2.431762      0.252894      1.913835
  H      -3.445648     -0.906297      1.019302
  H      -2.044357     -0.048673     -1.121211
  H      -1.342117     -1.267877     -0.063321
  H      -0.061207      0.488689      1.164419
  H      -0.825583      1.755795      0.211241
  H       1.253778      1.486657     -0.889138
  H       0.185284      0.508232     -1.895581
  H       1.869271     -1.090706     -1.611741
  H       0.980687     -1.447998     -0.134971
  H       2.509399      0.201174      1.129140
  H       3.470642      0.362659     -0.364712
  H       3.360597     -1.215113      0.462121
20
Coordinates from ORCA-job orca7 E -236.718701787154
  C      -2.790536     -0.007560      0.935607
  C      -1.660220     -0.220135     -0.078401
  C      -0.473022      0.726267      0.128551
  C       0.638466      0.571012     -0.919160
  C       1.550999     -0.648726     -0.673921
  C       2.747190     -0.322956      0.223650
  H      -3.437783      0.842580      0.651452
  H      -2.387442      0.212092      1.942180
  H      -3.434703     -0.901012      1.024413
  H      -2.050713     -0.081435     -1.105617
  H      -1.308737     -1.268603     -0.034654
  H      -0.047735      0.555578      1.138737
  H      -0.842405      1.770563      0.138522
  H       1.260729      1.486171     -0.928409
  H       0.182531      0.507321     -1.925282
  H       1.909954     -1.056298     -1.636497
  H       0.963131     -1.463414     -0.208618
  H       2.420133      0.139845      1.173534
  H       3.433196      0.387126     -0.274946
  H       3.326967     -1.228415      0.479694
20
Coordinates from ORCA-job orca7 E -236.719671502125
  C      -2.765199     -0.008684      0.959327
  C      -1.647125     -0.229227     -0.065738
  C      -0.471683      0.740878      0.101667
  C       0.637956      0.571914     -0.947339
  C       1.553425     -0.643826     -0.698908
  C       2.710816     -0.334288      0.255345
  H      -3.385225      0.869208      0.699262
  H      -2.350428      0.171204      1.969001
  H      -3.436006     -0.884209      1.026385
  H      -2.055819     -0.117696     -1.089318
  H      -1.283029     -1.272222     -0.001324
  H      -0.039792      0.614624      1.115097
  H      -0.858837      1.778119      0.070856
  H       1.261835      1.485928     -0.966019
  H       0.177361      0.500398     -1.950824
  H       1.956538     -1.015160     -1.658665
  H       0.957054     -1.478680     -0.283816
  H       2.340579      0.078991      1.211562
  H       3.397433      0.411572     -0.186983
  H       3.300144     -1.238843      0.491267
20
Coordinates from ORCA-job orca7 E -236.720517718022
  C      -2.739453     -0.007930      0.981240
  C      -1.632360     -0.238809     -0.051948
  C      -0.470528      0.753468      0.076609
  C       0.636227      0.572932     -0.974113
  C       1.557107     -0.636782     -0.723515
  C       2.672803     -0.346136      0.285055
  H      -3.330471      0.896006      0.742872
  H      -2.316605      0.133408      1.993626
  H      -3.438412     -0.862630      1.028332
  H      -2.056764     -0.158129     -1.072118
  H      -1.255477     -1.275489      0.036026
  H      -0.033159      0.670756      1.091788
  H      -0.874705      1.782310      0.008255
  H       1.258802      1.487697     -1.004469
  H       0.170245      0.490416     -1.974381
  H       2.004123     -0.968897     -1.678356
  H       0.955449     -1.492275     -0.361911
  H       2.262000      0.016923      1.244785
  H       3.359105      0.432289     -0.097800
  H       3.272073     -1.249128      0.500858
20
Coordinates from ORCA-job orca7 E -236.721233210294
  C      -2.712161     -0.006409      1.002385
  C      -1.614502     -0.247970     -0.036746
  C      -0.468857      0.766696      0.052144
  C       0.634073      0.575246     -1.000761
  C       1.560662     -0.628115     -0.748656
  C       2.630491     -0.360324      0.314039
  H      -3.276589      0.919057      0.782118
  H      -2.283986      0.102058      2.016556
  H      -3.435997     -0.841115      1.033053
  H      -2.052809     -0.202667     -1.053235
  H      -1.221574     -1.275998      0.077443
  H      -0.026079      0.727439      1.067131
  H      -0.891162      1.785304     -0.050855
  H       1.253702      1.491675     -1.044464
  H       0.162523      0.479626     -1.997459
  H       2.051945     -0.918157     -1.695722
  H       0.956668     -1.504006     -0.444684
  H       2.178709     -0.049751      1.273736
  H       3.314518      0.448064     -0.005588
  H       3.240424     -1.260653      0.510400
20
Coordinates from ORCA-job orca7 E -236.721794358414
  C      -2.684618     -0.004287      1.022921
  C      -1.593524     -0.256513     -0.019394
  C      -0.467168      0.781823      0.027966
  C       0.631907      0.579327     -1.026796
  C       1.563977     -0.618231     -0.773982
  C       2.584789     -0.378239      0.341795
  H      -3.226884      0.937358      0.815345
  H      -2.254034      0.079595      2.038390
  H      -3.428159     -0.821979      1.041149
  H      -2.042951     -0.251882     -1.031971
  H      -1.180278     -1.272619      0.124345
  H      -0.019323      0.787160      1.040884
  H      -0.909629      1.787854     -0.108297
  H       1.248079      1.497492     -1.084502
  H       0.154984      0.469893     -2.019740
  H       2.099794     -0.863023     -1.709963
  H       0.961102     -1.513761     -0.531699
  H       2.092086     -0.124290      1.298086
  H       3.262395      0.458426      0.088303
  H       3.207452     -1.274103      0.517990
20
Coordinates from ORCA-job orca7 E -236.722202316179
  C      -2.657820     -0.001489      1.042360
  C      -1.568832     -0.264697      0.001117
  C      -0.465843      0.799326      0.004249
  C       0.629832      0.585829     -1.051480
  C       1.566408     -0.607279     -0.798948
  C       2.536623     -0.400881      0.367293
  H      -3.183818      0.950487      0.839622
  H      -2.228551      0.068454      2.059411
  H      -3.415015     -0.806710      1.052510
  H      -2.024980     -0.307336     -1.007489
  H      -1.130952     -1.264768      0.179022
  H      -0.013585      0.851682      1.013358
  H      -0.931005      1.789837     -0.165382
  H       1.243140      1.505117     -1.122646
  H       0.147954      0.463474     -2.040723
  H       2.146460     -0.804068     -1.720074
  H       0.967840     -1.520736     -0.621751
  H       2.004671     -0.209616      1.317117
  H       3.202134      0.463093      0.182651
  H       3.175338     -1.289719      0.520618
20
Coordinates from ORCA-job orca7 E -236.722507021585
  C      -2.629378      0.002086      1.061629
  C      -1.538562     -0.273078      0.025498
  C      -0.464133      0.818711     -0.020089
  C       0.628379      0.595755     -1.076478
  C       1.567611     -0.594863     -0.825431
  C       2.481955     -0.429177      0.390981
  H      -3.148705      0.956404      0.852395
  H      -2.203570      0.074413      2.079930
  H      -3.391815     -0.798120      1.072478
  H      -1.997100     -0.370719     -0.978145
  H      -1.071937     -1.252020      0.242774
  H      -0.007526      0.921100      0.983044
  H      -0.955153      1.790151     -0.223165
  H       1.240039      1.515400     -1.158029
  H       0.142753      0.463709     -2.062839
  H       2.193110     -0.741304     -1.726185
  H       0.975804     -1.523602     -0.718310
  H       1.908774     -0.308577      1.328300
  H       3.129268      0.461398      0.282524
  H       3.140183     -1.307667      0.519953
20
Coordinates from ORCA-job orca7 E -236.722747048638
  C      -2.596591      0.005254      1.081288
  C      -1.500572     -0.281169      0.053513
  C      -0.461427      0.840554     -0.045883
  C       0.628156      0.610453     -1.102873
  C       1.566716     -0.580712     -0.853940
  C       2.417133     -0.463797      0.412913
  H      -3.122948      0.951250      0.852520
  H      -2.174739      0.100589      2.099286
  H      -3.352934     -0.800401      1.105319
  H      -1.957377     -0.441407     -0.942859
  H      -1.000569     -1.232601      0.314331
  H      -0.000497      0.996463      0.948476
  H      -0.982177      1.788627     -0.282132
  H       1.239974      1.529586     -1.189913
  H       0.140626      0.473430     -2.087787
  H       2.238907     -0.677409     -1.727468
  H       0.982605     -1.520027     -0.821187
  H       1.798565     -0.419639      1.327776
  H       3.040688      0.450122      0.389859
  H       3.096460     -1.329167      0.519596
20
Coordinates from ORCA-job orca7 E -236.722879768209
  C      -2.561198      0.007474      1.099547
  C      -1.454224     -0.288413      0.085891
  C      -0.456940      0.864393     -0.070619
  C       0.629680      0.630064     -1.128948
  C       1.563071     -0.565781     -0.883650
  C       2.343941     -0.503678      0.430670
  H      -3.108711      0.932400      0.836791
  H      -2.146284      0.147614      2.115100
  H      -3.298640     -0.814419      1.148934
  H      -1.902669     -0.517561     -0.900826
  H      -0.917874     -1.205219      0.394598
  H       0.008169      1.076222      0.911743
  H      -1.011532      1.784318     -0.338670
  H       1.244304      1.547408     -1.215658
  H       0.141405      0.494656     -2.113772
  H       2.280771     -0.617514     -1.724184
  H       0.985968     -1.509163     -0.925427
  H       1.678105     -0.536689      1.312014
  H       2.938052      0.427809      0.497773
  H       3.044607     -1.353923      0.519528
20
Coordinates from ORCA-job orca7 E -236.722929603112
  C      -2.550147      0.006767      1.102782
  C      -1.436606     -0.290427      0.096542
  C      -0.453914      0.872789     -0.075945
  C       0.631478      0.639451     -1.135781
  C       1.558754     -0.562054     -0.892958
  C       2.320063     -0.516979      0.433913
  H      -3.115133      0.914879      0.819305
  H      -2.138770      0.177419      2.115063
  H      -3.271432     -0.828071      1.170500
  H      -1.879313     -0.541272     -0.887526
  H      -0.888790     -1.195212      0.420805
  H       0.013647      1.100260      0.901820
  H      -1.020693      1.783190     -0.351022
  H       1.249903      1.554627     -1.217412
  H       0.143486      0.511121     -2.121610
  H       2.287562     -0.607622     -1.724180
  H       0.978719     -1.502611     -0.952681
  H       1.639846     -0.569752      1.303393
  H       2.906117      0.417342      0.526697
  H       3.025221     -1.363843      0.519128
20
Coordinates from ORCA-job orca7 E -236.722978629197
  C      -2.541378      0.006225      1.102007
  C      -1.415052     -0.293620      0.110959
  C      -0.449603      0.881947     -0.077162
  C       0.635396      0.653448     -1.139576
  C       1.551709     -0.558542     -0.904402
  C       2.296615     -0.533843      0.433228
  H      -3.138922      0.879293      0.778261
  H      -2.138356      0.236568      2.105781
  H      -3.230466     -0.851642      1.206756
  H      -1.846256     -0.570444     -0.871308
  H      -0.855975     -1.183314      0.457221
  H       0.020847      1.124816      0.895229
  H      -1.031794      1.780852     -0.357848
  H       1.261154      1.564686     -1.208106
  H       0.149096      0.542023     -2.128144
  H       2.288014     -0.604121     -1.728824
  H       0.962237     -1.491962     -0.978416
  H       1.602401     -0.605725      1.290341
  H       2.875373      0.401879      0.552152
  H       3.004961     -1.378525      0.512684
20
Coordinates from ORCA-job orca7 E -236.722987444746
  C      -2.551381      0.007387      1.095783
  C      -1.422873     -0.294071      0.107819
  C      -0.450232      0.877301     -0.069688
  C       0.635891      0.651781     -1.132124
  C       1.551562     -0.561217     -0.900459
  C       2.313484     -0.528811      0.427519
  H      -3.152163      0.875852      0.765786
  H      -2.150033      0.245934      2.098327
  H      -3.236741     -0.852790      1.205514
  H      -1.852361     -0.561959     -0.877673
  H      -0.871179     -1.189365      0.451086
  H       0.019543      1.110340      0.905364
  H      -1.027660      1.780948     -0.344947
  H       1.262546      1.562757     -1.196548
  H       0.150278      0.544929     -2.121511
  H       2.277037     -0.615661     -1.733849
  H       0.957753     -1.492961     -0.959647
  H       1.629716     -0.588619      1.293798
  H       2.898575      0.404817      0.530582
  H       3.018236     -1.376593      0.505702
20
Coordinates from ORCA-job orca7 E -236.722990283758
  C      -2.554000      0.009300      1.094108
  C      -1.421822     -0.295142      0.111317
  C      -0.450806      0.877194     -0.068036
  C       0.636067      0.652715     -1.129882
  C       1.551927     -0.560335     -0.901667
  C       2.315273     -0.532014      0.425340
  H      -3.158021      0.872123      0.755361
  H      -2.156030      0.258273      2.095464
  H      -3.235540     -0.853129      1.209569
  H      -1.847842     -0.567983     -0.874310
  H      -0.870198     -1.188026      0.460642
  H       0.017472      1.112993      0.907051
  H      -1.029447      1.779358     -0.345608
  H       1.262776      1.563905     -1.192275
  H       0.150924      0.547565     -2.119736
  H       2.276701     -0.611514     -1.735896
  H       0.958463     -1.492217     -0.963473
  H       1.633389     -0.596568      1.292704
  H       2.898966      0.402274      0.531193
  H       3.021746     -1.378775      0.498966
20
Coordinates from ORCA-job orca7 E -236.722990851504
  C      -2.554811      0.009856      1.093282
  C      -1.421054     -0.295585      0.112576
  C      -0.450683      0.877090     -0.067231
  C       0.635977      0.653073     -1.128954
  C       1.551567     -0.559994     -0.901981
  C       2.315486     -0.532990      0.424473
  H      -3.159838      0.870712      0.751350
  H      -2.158336      0.262481      2.094306
  H      -3.235081     -0.853342      1.210450
  H      -1.845620     -0.570363     -0.873145
  H      -0.869263     -1.187534      0.464156
  H       0.017083      1.113698      0.907991
  H      -1.029498      1.778991     -0.345425
  H       1.262680      1.564334     -1.190716
  H       0.150792      0.548227     -2.118841
  H       2.276084     -0.609638     -1.736558
  H       0.958429     -1.492085     -0.964836
  H       1.634573     -0.598147      1.292618
  H       2.899556      0.401096      0.530406
  H       3.021955     -1.379883      0.496914
