! UKS B3LYP def2-SV(P) def2/J D3BJ Opt
%scf Convergence VeryTight
SmearTemp 2000
maxiter 500
end
*xyz 0 1
C -2.890746 0.159205 0.703902
C -1.696904 -0.198903 -0.139813
C -0.453626 0.440486 0.446086
C 0.595706 0.422875 -0.630032
C 1.565464 -0.718612 -0.50064
C 2.898669 -0.143204 -0.038607
H -3.464535 0.986465 0.257642
H -2.536528 0.499587 1.698733
H -3.496564 -0.775203 0.797601
H -1.866882 0.204315 -1.155587
H -1.526998 -1.282493 -0.200693
H -0.059396 -0.173947 1.294265
H -0.742944 1.460445 0.7636
H 1.106673 1.416744 -0.600426
H 0.108529 0.377077 -1.637025
H 1.658647 -1.249014 -1.459398
H 1.266498 -1.46616 0.254504
H 2.625282 0.639233 0.714072
H 3.360627 0.310718 -0.939795
H 3.549027 -0.909614 0.422445
*
