13
Coordinates from ORCA-job orca5 E -157.517992839744
  C      -0.013801      0.075577      0.399739
  C      -0.348355      1.386235     -0.271444
  C       1.360581     -0.419639      0.068919
  C      -1.012493     -0.978134     -0.044105
  H      -0.186800      0.210216      1.494906
  H       0.184781      2.224524      0.242874
  H      -0.107453      1.367219     -1.359916
  H       1.359594     -1.460325     -0.340495
  H       1.933230     -0.481087      1.029512
  H       1.920686      0.247782     -0.614047
  H      -0.586168     -1.454504     -0.942256
  H      -1.091176     -1.764691      0.733695
  H      -1.960313     -0.467155     -0.259917
13
Coordinates from ORCA-job orca5 E -157.530271334249
  C      -0.007827      0.060915      0.394046
  C      -0.298765      1.389383     -0.276290
  C       1.424762     -0.417147      0.097588
  C      -1.065243     -0.993882     -0.051852
  H      -0.160906      0.203044      1.482193
  H       0.167914      2.260233      0.222403
  H      -0.140023      1.401265     -1.371232
  H       1.453667     -1.440602     -0.316764
  H       2.004256     -0.464509      1.042427
  H       1.976885      0.255821     -0.582891
  H      -0.711270     -1.484119     -0.975350
  H      -1.160584     -1.788263      0.711053
  H      -2.030553     -0.496121     -0.237865
13
Coordinates from ORCA-job orca5 E -157.534618176395
  C      -0.008033      0.059256      0.391306
  C      -0.255302      1.388475     -0.282025
  C       1.446815     -0.425061      0.127180
  C      -1.068587     -0.992116     -0.060780
  H      -0.144620      0.206322      1.476827
  H       0.153788      2.286588      0.203638
  H      -0.192285      1.411697     -1.381911
  H       1.468898     -1.445384     -0.293367
  H       2.033904     -0.459664      1.061754
  H       1.991352      0.238708     -0.566833
  H      -0.760872     -1.461528     -1.014411
  H      -1.159815     -1.803622      0.683219
  H      -2.052932     -0.517654     -0.207134
13
Coordinates from ORCA-job orca5 E -157.536726107496
  C      -0.007818      0.063303      0.385669
  C      -0.226564      1.386194     -0.291013
  C       1.456552     -0.439033      0.152202
  C      -1.056763     -0.981472     -0.070837
  H      -0.137530      0.214498      1.472231
  H       0.138626      2.304005      0.188282
  H      -0.250946      1.410958     -1.390871
  H       1.466174     -1.463611     -0.260788
  H       2.044679     -0.455528      1.085967
  H       2.000192      0.205939     -0.560766
  H      -0.790047     -1.409823     -1.055485
  H      -1.124385     -1.819254      0.646937
  H      -2.059858     -0.530159     -0.164064
13
Coordinates from ORCA-job orca5 E -157.537903917080
  C      -0.005627      0.070117      0.379981
  C      -0.206838      1.387198     -0.302202
  C       1.459146     -0.454840      0.171866
  C      -1.041623     -0.969525     -0.080593
  H      -0.137263      0.224943      1.467010
  H       0.127711      2.317144      0.174175
  H      -0.308218      1.409406     -1.396915
  H       1.456448     -1.489428     -0.216900
  H       2.042621     -0.446970      1.108566
  H       2.007238      0.163538     -0.561471
  H      -0.811669     -1.345208     -1.095418
  H      -1.069999     -1.839304      0.601625
  H      -2.059614     -0.541054     -0.112259
13
Coordinates from ORCA-job orca5 E -157.538664528493
  C      -0.001852      0.075987      0.375554
  C      -0.190591      1.389537     -0.313123
  C       1.459452     -0.468355      0.187542
  C      -1.030951     -0.960114     -0.090703
  H      -0.141593      0.235101      1.461697
  H       0.124337      2.325970      0.162793
  H      -0.357916      1.409315     -1.398971
  H       1.447716     -1.517207     -0.161212
  H       2.038873     -0.426760      1.126127
  H       2.011421      0.117312     -0.569373
  H      -0.835184     -1.278413     -1.132166
  H      -1.012750     -1.862573      0.548075
  H      -2.058648     -0.553783     -0.058775
13
Coordinates from ORCA-job orca5 E -157.539217557456
  C       0.002647      0.078456      0.372876
  C      -0.175682      1.391021     -0.320899
  C       1.459970     -0.478352      0.200496
  C      -1.026379     -0.953608     -0.102232
  H      -0.149374      0.241653      1.457039
  H       0.127687      2.329893      0.156975
  H      -0.398455      1.411588     -1.395965
  H       1.443900     -1.544334     -0.091280
  H       2.041389     -0.389402      1.134900
  H       2.009541      0.066985     -0.587321
  H      -0.861167     -1.215315     -1.164940
  H      -0.963392     -1.885326      0.489161
  H      -2.058372     -0.567243     -0.011345
13
Coordinates from ORCA-job orca5 E -157.539694712427
  C       0.006851      0.076295      0.371990
  C      -0.162399      1.391219     -0.322438
  C       1.461193     -0.484794      0.210730
  C      -1.026683     -0.949707     -0.115845
  H      -0.159237      0.241020      1.453861
  H       0.135591      2.329165      0.160209
  H      -0.428536      1.417992     -1.386840
  H       1.446970     -1.568546     -0.005750
  H       2.054069     -0.331784      1.129878
  H       1.997644      0.010080     -0.617990
  H      -0.884396     -1.162449     -1.193105
  H      -0.930199     -1.904483      0.431595
  H      -2.058554     -0.577991      0.021169
13
Coordinates from ORCA-job orca5 E -157.540243184337
  C       0.010157      0.070049      0.372708
  C      -0.151728      1.390756     -0.316873
  C       1.462296     -0.487943      0.217593
  C      -1.030102     -0.948324     -0.130655
  H      -0.169451      0.232577      1.452655
  H       0.145814      2.325067      0.173003
  H      -0.446420      1.428921     -1.372966
  H       1.456773     -1.585761      0.088924
  H       2.074064     -0.259678      1.108624
  H       1.975418     -0.051924     -0.657448
  H      -0.900059     -1.124926     -1.216230
  H      -0.914999     -1.919340      0.382795
  H      -2.059450     -0.583457      0.035334
13
Coordinates from ORCA-job orca5 E -157.540855713228
  C       0.013023      0.059073      0.375400
  C      -0.143534      1.388635     -0.305669
  C       1.463534     -0.486692      0.221193
  C      -1.038710     -0.950217     -0.145271
  H      -0.180624      0.217305      1.453235
  H       0.160067      2.317111      0.191944
  H      -0.449966      1.442266     -1.357561
  H       1.476508     -1.591575      0.184605
  H       2.097015     -0.180219      1.072987
  H       1.946523     -0.112002     -0.698175
  H      -0.911524     -1.102304     -1.235075
  H      -0.916763     -1.932674      0.343523
  H      -2.063237     -0.582688      0.036329
13
Coordinates from ORCA-job orca5 E -157.541430102868
  C       0.015298      0.049267      0.377538
  C      -0.136002      1.386986     -0.294571
  C       1.463483     -0.486678      0.225310
  C      -1.044741     -0.951126     -0.159885
  H      -0.191611      0.202574      1.453403
  H       0.172728      2.309669      0.210482
  H      -0.453467      1.455908     -1.341949
  H       1.495634     -1.590674      0.280078
  H       2.116130     -0.105426      1.031204
  H       1.916538     -0.178471     -0.733112
  H      -0.921962     -1.077851     -1.253539
  H      -0.914429     -1.944359      0.303792
  H      -2.065286     -0.583799      0.038713
13
Coordinates from ORCA-job orca5 E -157.542020466128
  C       0.015928      0.038828      0.379924
  C      -0.130761      1.385538     -0.280075
  C       1.461668     -0.484764      0.228513
  C      -1.049921     -0.953088     -0.174343
  H      -0.202143      0.184414      1.454580
  H       0.187660      2.301336      0.231463
  H      -0.448102      1.471868     -1.326071
  H       1.516758     -1.580146      0.372106
  H       2.132417     -0.031678      0.980053
  H       1.881473     -0.246108     -0.764505
  H      -0.929050     -1.061546     -1.270035
  H      -0.916533     -1.954340      0.270907
  H      -2.067079     -0.584297      0.034948
13
Coordinates from ORCA-job orca5 E -157.542714220532
  C       0.014721      0.032071      0.381120
  C      -0.126950      1.386077     -0.265812
  C       1.458183     -0.484891      0.232825
  C      -1.049333     -0.952967     -0.188962
  H      -0.211245      0.167853      1.455711
  H       0.201601      2.295227      0.251073
  H      -0.446445      1.488599     -1.309627
  H       1.532597     -1.564657      0.462257
  H       2.144630      0.034457      0.924432
  H       1.844958     -0.322303     -0.788901
  H      -0.933976     -1.041651     -1.286836
  H      -0.910488     -1.961781      0.237547
  H      -2.065942     -0.590015      0.032637
13
Coordinates from ORCA-job orca5 E -157.543758893253
  C       0.006009      0.029409      0.381954
  C      -0.133426      1.390420     -0.242375
  C       1.448867     -0.479962      0.234140
  C      -1.039095     -0.953496     -0.201572
  H      -0.215880      0.144376      1.460855
  H       0.220025      2.290002      0.274843
  H      -0.424171      1.510773     -1.293231
  H       1.538441     -1.542545      0.530695
  H       2.152868      0.093107      0.861276
  H       1.794563     -0.389958     -0.812114
  H      -0.922974     -1.047121     -1.298153
  H      -0.911565     -1.962190      0.231553
  H      -2.061350     -0.596796      0.009596
13
Coordinates from ORCA-job orca5 E -157.544537754680
  C      -0.002293      0.042353      0.378679
  C      -0.136909      1.402721     -0.230585
  C       1.440645     -0.491958      0.239201
  C      -1.013192     -0.942322     -0.214324
  H      -0.214778      0.138618      1.463085
  H       0.224197      2.297412      0.290720
  H      -0.449725      1.526597     -1.274985
  H       1.520256     -1.531509      0.610608
  H       2.159659      0.127379      0.803592
  H       1.754084     -0.491563     -0.821498
  H      -0.908857     -1.012189     -1.314239
  H      -0.872475     -1.956672      0.201347
  H      -2.048300     -0.622849      0.005864
13
Coordinates from ORCA-job orca5 E -157.544877133981
  C      -0.007995      0.037390      0.383061
  C      -0.147124      1.407453     -0.204260
  C       1.436907     -0.483667      0.231616
  C      -1.014701     -0.947093     -0.222815
  H      -0.212940      0.112471      1.470758
  H       0.241934      2.288786      0.320668
  H      -0.426804      1.542410     -1.257280
  H       1.539345     -1.498848      0.660077
  H       2.163593      0.176981      0.736496
  H       1.716419     -0.540909     -0.837209
  H      -0.880761     -1.039208     -1.317757
  H      -0.902936     -1.955945      0.214967
  H      -2.052624     -0.613802     -0.040857
13
Coordinates from ORCA-job orca5 E -157.544926970859
  C      -0.004055      0.036983      0.383238
  C      -0.136434      1.410791     -0.200844
  C       1.439961     -0.493643      0.236340
  C      -1.016559     -0.942309     -0.236837
  H      -0.215082      0.107623      1.469689
  H       0.250480      2.286549      0.333658
  H      -0.467207      1.549855     -1.237511
  H       1.555245     -1.468548      0.746096
  H       2.168642      0.209911      0.677309
  H       1.701602     -0.629707     -0.829059
  H      -0.883189     -0.997061     -1.334745
  H      -0.886270     -1.962294      0.167389
  H      -2.054820     -0.622132     -0.037258
13
Coordinates from ORCA-job orca5 E -157.544955549830
  C      -0.010485      0.040529      0.387773
  C      -0.159034      1.416508     -0.182808
  C       1.439688     -0.486549      0.220578
  C      -1.015319     -0.944356     -0.230370
  H      -0.201920      0.092056      1.478491
  H       0.250990      2.282251      0.349681
  H      -0.451005      1.547874     -1.232095
  H       1.553433     -1.471007      0.711701
  H       2.169735      0.209054      0.670797
  H       1.694945     -0.602458     -0.848423
  H      -0.829596     -1.054897     -1.316080
  H      -0.932605     -1.946160      0.229127
  H      -2.056514     -0.596827     -0.100907
13
Coordinates from ORCA-job orca5 E -157.545006161318
  C      -0.008023      0.039062      0.384912
  C      -0.150425      1.412321     -0.193700
  C       1.439335     -0.487832      0.227428
  C      -1.014715     -0.943911     -0.229808
  H      -0.207043      0.101504      1.474143
  H       0.249255      2.284932      0.336647
  H      -0.455871      1.546130     -1.239016
  H       1.548312     -1.480336      0.703704
  H       2.168582      0.198234      0.693554
  H       1.703832     -0.589858     -0.841199
  H      -0.852779     -1.038367     -1.320846
  H      -0.913708     -1.951300      0.213404
  H      -2.054438     -0.604561     -0.071758
13
Coordinates from ORCA-job orca5 E -157.545008794578
  C      -0.007579      0.038648      0.384841
  C      -0.149713      1.412251     -0.193496
  C       1.439494     -0.488065      0.227512
  C      -1.014877     -0.943887     -0.230527
  H      -0.206918      0.100917      1.474071
  H       0.251138      2.284383      0.336644
  H      -0.461002      1.546820     -1.236911
  H       1.549206     -1.479310      0.706277
  H       2.168712      0.199243      0.691918
  H       1.703566     -0.592117     -0.840995
  H      -0.850870     -1.038941     -1.321243
  H      -0.914655     -1.951041      0.213249
  H      -2.054188     -0.602882     -0.073874
13
Coordinates from ORCA-job orca5 E -157.545012784662
  C      -0.006723      0.038122      0.384321
  C      -0.148461      1.412209     -0.193241
  C       1.439842     -0.488464      0.227689
  C      -1.014222     -0.943755     -0.231812
  H      -0.206164      0.099806      1.473748
  H       0.257068      2.283282      0.334892
  H      -0.476918      1.548960     -1.230934
  H       1.549592     -1.479147      0.707756
  H       2.169170      0.199009      0.691745
  H       1.703982     -0.593277     -0.840719
  H      -0.844000     -1.043689     -1.321152
  H      -0.918121     -1.949194      0.216574
  H      -2.052731     -0.597843     -0.081401
13
Coordinates from ORCA-job orca5 E -157.545014302075
  C      -0.006324      0.038051      0.383817
  C      -0.147748      1.412305     -0.193223
  C       1.440197     -0.488648      0.228076
  C      -1.013373     -0.943733     -0.232548
  H      -0.205917      0.099403      1.473354
  H       0.262131      2.282771      0.332550
  H      -0.488463      1.551040     -1.226638
  H       1.549361     -1.479854      0.707258
  H       2.169571      0.198073      0.693167
  H       1.704971     -0.592704     -0.840270
  H      -0.839911     -1.047446     -1.320984
  H      -0.920509     -1.947915      0.219327
  H      -2.051674     -0.595325     -0.086420
13
Coordinates from ORCA-job orca5 E -157.545015406648
  C      -0.006110      0.038071      0.383359
  C      -0.147227      1.412423     -0.193210
  C       1.440613     -0.488727      0.228687
  C      -1.012580     -0.943810     -0.233222
  H      -0.206175      0.099179      1.472906
  H       0.267728      2.282249      0.329706
  H      -0.498446      1.553348     -1.222786
  H       1.549302     -1.480424      0.706943
  H       2.169824      0.197518      0.694716
  H       1.706216     -0.592166     -0.839532
  H      -0.837526     -1.050156     -1.321102
  H      -0.922318     -1.947174      0.221032
  H      -2.050987     -0.594313     -0.090032
