13
Coordinates from ORCA-job orca2 E -157.517634608750
  C      -0.013531      0.080692     -0.405817
  C       1.100578     -0.893964     -0.035812
  C       0.258437      1.320463      0.415014
  C      -1.378238     -0.501209     -0.149636
  H       0.086033      0.318044     -1.495565
  H       1.159985     -0.953932      1.066761
  H       0.854804     -1.845263     -0.529144
  H      -0.618758      1.954400      0.570790
  H       1.094952      1.851714     -0.105926
  H       0.651839      1.063777      1.425385
  H      -1.896545     -0.692155     -1.123748
  H      -1.336756     -1.494497      0.355981
  H      -2.006439      0.232899      0.388696
13
Coordinates from ORCA-job orca2 E -157.530536243634
  C      -0.001255      0.082338     -0.389665
  C       1.074237     -0.954661     -0.045266
  C       0.264865      1.369834      0.415890
  C      -1.404953     -0.505720     -0.147462
  H       0.108335      0.317313     -1.467914
  H       1.234539     -1.062363      1.040212
  H       0.926712     -1.908385     -0.582638
  H      -0.619464      2.021805      0.514925
  H       1.103131      1.911487     -0.064203
  H       0.607529      1.138925      1.443003
  H      -1.916752     -0.703972     -1.110323
  H      -1.378976     -1.480097      0.375769
  H      -2.041586      0.214466      0.394649
13
Coordinates from ORCA-job orca2 E -157.535445450338
  C       0.007249      0.078118     -0.379703
  C       1.044221     -0.977012     -0.053327
  C       0.271180      1.376738      0.414992
  C      -1.422500     -0.501526     -0.143093
  H       0.115749      0.315724     -1.453161
  H       1.287248     -1.106497      1.013047
  H       0.991316     -1.913751     -0.629478
  H      -0.610099      2.043136      0.442984
  H       1.123059      1.926013     -0.019996
  H       0.544583      1.150136      1.462949
  H      -1.929971     -0.717667     -1.099365
  H      -1.405832     -1.449899      0.419739
  H      -2.059844      0.217458      0.401389
13
Coordinates from ORCA-job orca2 E -157.537578950372
  C       0.009777      0.069210     -0.371994
  C       1.028045     -0.987302     -0.061619
  C       0.270753      1.366406      0.417846
  C      -1.435086     -0.491980     -0.135182
  H       0.106236      0.311387     -1.447357
  H       1.334678     -1.123264      0.986052
  H       1.051582     -1.898485     -0.675521
  H      -0.596996      2.049987      0.374374
  H       1.148596      1.908224      0.025026
  H       0.470043      1.144321      1.483529
  H      -1.936393     -0.733433     -1.088152
  H      -1.425595     -1.413884      0.471909
  H      -2.069281      0.239782      0.398067
13
Coordinates from ORCA-job orca2 E -157.538803224647
  C       0.004935      0.061595     -0.367797
  C       1.021144     -0.992520     -0.071297
  C       0.267748      1.352441      0.423706
  C      -1.445906     -0.483940     -0.125831
  H       0.085628      0.308524     -1.444702
  H       1.378092     -1.123300      0.960019
  H       1.102635     -1.875134     -0.719138
  H      -0.575356      2.059654      0.319099
  H       1.178507      1.869258      0.071956
  H       0.396935      1.135041      1.501439
  H      -1.937181     -0.761889     -1.073876
  H      -1.440420     -1.376919      0.524676
  H      -2.080400      0.268157      0.378723
13
Coordinates from ORCA-job orca2 E -157.539781049758
  C      -0.004498      0.056805     -0.366194
  C       1.016877     -0.995660     -0.082469
  C       0.264907      1.339797      0.431734
  C      -1.455309     -0.479000     -0.116472
  H       0.062323      0.308451     -1.443403
  H       1.415218     -1.114511      0.934056
  H       1.142650     -1.848969     -0.760745
  H      -0.547882      2.073686      0.281076
  H       1.208767      1.822048      0.118689
  H       0.333603      1.125555      1.515832
  H      -1.931911     -0.806406     -1.056264
  H      -1.452206     -1.337777      0.579384
  H      -2.096180      0.296949      0.341757
13
Coordinates from ORCA-job orca2 E -157.540675350117
  C      -0.015569      0.054861     -0.366319
  C       1.012232     -0.998004     -0.095285
  C       0.263159      1.329679      0.441233
  C      -1.462634     -0.476383     -0.108059
  H       0.041242      0.311963     -1.442697
  H       1.444148     -1.103094      0.908130
  H       1.171079     -1.822974     -0.800521
  H      -0.519552      2.089285      0.261276
  H       1.235228      1.775539      0.162210
  H       0.284653      1.115326      1.527304
  H      -1.919300     -0.866015     -1.034200
  H      -1.462256     -1.292741      0.637336
  H      -2.116068      0.323525      0.286571
13
Coordinates from ORCA-job orca2 E -157.541526448514
  C      -0.025740      0.055304     -0.367247
  C       1.006425     -1.000376     -0.109672
  C       0.262519      1.322108      0.451517
  C      -1.467286     -0.474801     -0.101091
  H       0.024429      0.319434     -1.442000
  H       1.464490     -1.094685      0.882593
  H       1.188684     -1.799642     -0.838004
  H      -0.494647      2.103521      0.256349
  H       1.255709      1.736299      0.200465
  H       0.250093      1.103911      1.536977
  H      -1.899242     -0.935365     -1.006761
  H      -1.471411     -1.239660      0.697010
  H      -2.137663      0.344920      0.216841
13
Coordinates from ORCA-job orca2 E -157.542350545452
  C      -0.033658      0.057519     -0.368388
  C       0.999794     -1.003008     -0.125473
  C       0.262583      1.316457      0.462126
  C      -1.469182     -0.473265     -0.095579
  H       0.011640      0.330559     -1.440991
  H       1.477516     -1.092470      0.857661
  H       1.197350     -1.780293     -0.872992
  H      -0.475006      2.114759      0.260891
  H       1.270319      1.706952      0.233608
  H       0.226383      1.091387      1.545723
  H      -1.872817     -1.008402     -0.973489
  H      -1.480164     -1.178260      0.755620
  H      -2.158397      0.359035      0.138261
13
Coordinates from ORCA-job orca2 E -157.543148967997
  C      -0.038544      0.061114     -0.369573
  C       0.993068     -1.005602     -0.142740
  C       0.262982      1.312109      0.472890
  C      -1.468347     -0.471343     -0.091587
  H       0.002317      0.345115     -1.439573
  H       1.484393     -1.098189      0.833405
  H       1.198145     -1.765932     -0.905263
  H      -0.461555      2.121988      0.271158
  H       1.279526      1.688805      0.262362
  H       0.210660      1.077711      1.553993
  H      -1.840893     -1.081303     -0.934347
  H      -1.488769     -1.108603      0.810938
  H      -2.176623      0.365099      0.055315
13
Coordinates from ORCA-job orca2 E -157.543892127867
  C      -0.039840      0.065624     -0.370614
  C       0.987611     -1.007326     -0.161253
  C       0.263571      1.308057      0.483941
  C      -1.465310     -0.468759     -0.089498
  H      -0.004346      0.362608     -1.437595
  H       1.486612     -1.112301      0.809977
  H       1.191963     -1.757057     -0.934269
  H      -0.455077      2.123697      0.284954
  H       1.283508      1.682472      0.286658
  H       0.201881      1.062602      1.562238
  H      -1.804319     -1.151231     -0.890039
  H      -1.498215     -1.031051      0.860974
  H      -2.191679      0.363633     -0.028495
13
Coordinates from ORCA-job orca2 E -157.544493043871
  C      -0.038516      0.070597     -0.371313
  C       0.985173     -1.006961     -0.179730
  C       0.264572      1.303195      0.495712
  C      -1.461632     -0.465421     -0.089673
  H      -0.010198      0.381507     -1.434997
  H       1.486496     -1.131123      0.788298
  H       1.180050     -1.752687     -0.959125
  H      -0.455151      2.119429      0.303236
  H       1.283108      1.685007      0.304560
  H       0.201796      1.045819      1.571153
  H      -1.764741     -1.216000     -0.841887
  H      -1.510670     -0.948003      0.903252
  H      -2.203927      0.355610     -0.112508
13
Coordinates from ORCA-job orca2 E -157.544864099519
  C      -0.036610      0.075890     -0.371757
  C       0.986160     -1.004067     -0.196828
  C       0.266334      1.297814      0.508362
  C      -1.458617     -0.461976     -0.091942
  H      -0.016013      0.400199     -1.431950
  H       1.485863     -1.148325      0.769397
  H       1.162619     -1.751639     -0.979111
  H      -0.460220      2.111303      0.329720
  H       1.279805      1.691860      0.314069
  H       0.213133      1.027414      1.580920
  H      -1.724663     -1.274989     -0.790926
  H      -1.528081     -0.863594      0.935624
  H      -2.213349      0.341079     -0.198599
13
Coordinates from ORCA-job orca2 E -157.544980470934
  C      -0.034545      0.080548     -0.371851
  C       0.989620     -0.999637     -0.209571
  C       0.268740      1.293700      0.519346
  C      -1.456806     -0.459589     -0.095724
  H      -0.019015      0.415546     -1.428905
  H       1.485989     -1.158335      0.756134
  H       1.141116     -1.755046     -0.989843
  H      -0.468855      2.101689      0.360811
  H       1.274390      1.702044      0.313884
  H       0.234238      1.010532      1.589134
  H      -1.692752     -1.318795     -0.748482
  H      -1.547352     -0.795949      0.953536
  H      -2.218406      0.324260     -0.271489
13
Coordinates from ORCA-job orca2 E -157.544995411782
  C      -0.033445      0.080937     -0.371424
  C       0.992192     -0.997799     -0.209964
  C       0.269599      1.293227      0.520925
  C      -1.457222     -0.459495     -0.097660
  H      -0.017646      0.417077     -1.428081
  H       1.488155     -1.155970      0.755962
  H       1.133193     -1.759440     -0.986197
  H      -0.473239      2.097928      0.369710
  H       1.271539      1.707017      0.308333
  H       0.244081      1.007451      1.590206
  H      -1.690643     -1.321483     -0.747602
  H      -1.552002     -0.791735      0.952549
  H      -2.218201      0.323254     -0.279778
13
Coordinates from ORCA-job orca2 E -157.545005753387
  C      -0.031965      0.080780     -0.370534
  C       0.995519     -0.995846     -0.208819
  C       0.270180      1.292867      0.522215
  C      -1.457539     -0.459467     -0.100544
  H      -0.015314      0.417126     -1.427217
  H       1.493937     -1.148977      0.756537
  H       1.120834     -1.767930     -0.977469
  H      -0.479549      2.092891      0.379771
  H       1.267073      1.713626      0.299858
  H       0.256263      1.004663      1.590997
  H      -1.690950     -1.319260     -0.753438
  H      -1.555849     -0.794722      0.948396
  H      -2.216279      0.325220     -0.282775
13
Coordinates from ORCA-job orca2 E -157.545007620751
  C      -0.031711      0.080570     -0.370169
  C       0.995851     -0.995831     -0.208271
  C       0.269955      1.292693      0.522525
  C      -1.457393     -0.459420     -0.101364
  H      -0.014920      0.416692     -1.427046
  H       1.498194     -1.145091      0.755626
  H       1.116207     -1.771567     -0.974026
  H      -0.480734      2.091951      0.380892
  H       1.266107      1.714591      0.298929
  H       0.257302      1.004251      1.591253
  H      -1.691386     -1.317299     -0.756590
  H      -1.555877     -0.797191      0.946769
  H      -2.215234      0.326620     -0.281550
13
Coordinates from ORCA-job orca2 E -157.545010456855
  C      -0.031430      0.080338     -0.369450
  C       0.995798     -0.996217     -0.207592
  C       0.269333      1.292165      0.523511
  C      -1.457094     -0.459311     -0.103020
  H      -0.014430      0.416370     -1.426639
  H       1.510172     -1.135455      0.751394
  H       1.105235     -1.780041     -0.966713
  H      -0.481874      2.090878      0.381841
  H       1.265015      1.715192      0.299748
  H       0.256662      1.003294      1.592119
  H      -1.691523     -1.314190     -0.762026
  H      -1.555947     -0.800866      0.943885
  H      -2.213558      0.328811     -0.280079
13
Coordinates from ORCA-job orca2 E -157.545012578044
  C      -0.031368      0.080423     -0.368909
  C       0.995367     -0.996653     -0.207517
  C       0.268849      1.291580      0.524762
  C      -1.457083     -0.459242     -0.104455
  H      -0.014027      0.416968     -1.426148
  H       1.523010     -1.125972      0.745587
  H       1.094587     -1.787938     -0.960284
  H      -0.481726      2.090691      0.382253
  H       1.264927      1.714557      0.302509
  H       0.254537      1.002213      1.593215
  H      -1.690899     -1.313082     -0.765031
  H      -1.556768     -0.802077      0.941964
  H      -2.213046      0.329502     -0.280968
13
Coordinates from ORCA-job orca2 E -157.545015301822
  C      -0.031474      0.080792     -0.368257
  C       0.994549     -0.997214     -0.207862
  C       0.268316      1.290708      0.526818
  C      -1.457470     -0.459186     -0.106348
  H      -0.013314      0.418717     -1.425274
  H       1.542323     -1.112384      0.735588
  H       1.079608     -1.798683     -0.951564
  H      -0.480362      2.091247      0.382659
  H       1.265727      1.712400      0.307959
  H       0.250488      1.000631      1.595028
  H      -1.689544     -1.313341     -0.767147
  H      -1.558935     -0.801753      0.939973
  H      -2.213551      0.329035     -0.284594
13
Coordinates from ORCA-job orca2 E -157.545016566133
  C      -0.031674      0.081060     -0.367936
  C       0.994035     -0.997446     -0.208255
  C       0.268119      1.290214      0.528092
  C      -1.458005     -0.459177     -0.107288
  H      -0.012735      0.420208     -1.424625
  H       1.553475     -1.104882      0.729204
  H       1.071777     -1.804095     -0.947165
  H      -0.478909      2.092074      0.382852
  H       1.266745      1.710290      0.311642
  H       0.247798      0.999863      1.596188
  H      -1.688761     -1.314539     -0.767012
  H      -1.560854     -0.800500      0.939274
  H      -2.214649      0.327898     -0.287992
13
Coordinates from ORCA-job orca2 E -157.545016798562
  C      -0.031791      0.081081     -0.367857
  C       0.993924     -0.997449     -0.208393
  C       0.268120      1.290117      0.528392
  C      -1.458276     -0.459179     -0.107429
  H      -0.012489      0.420729     -1.424373
  H       1.555770     -1.103496      0.727774
  H       1.070625     -1.804799     -0.946653
  H      -0.478359      2.092446      0.382931
  H       1.267179      1.709425      0.312471
  H       0.247203      0.999840      1.596500
  H      -1.688709     -1.315216     -0.766410
  H      -1.561600     -0.799834      0.939290
  H      -2.215236      0.327304     -0.289265
