32
Coordinates from ORCA-job orca5 E -393.699202713994
  C       4.147282      1.069465     -0.045593
  C       3.786907     -0.402858      0.116183
  C       2.781798     -0.768101     -0.943066
  C       1.606868     -1.504725     -0.327974
  C       0.434331     -0.599982     -0.082196
  C      -0.835251     -1.423727     -0.178820
  C      -1.974414     -0.487395     -0.563887
  C      -2.461376      0.178014      0.691492
  C      -3.815360      0.807131      0.553639
  C      -3.802507      2.106287     -0.204033
  H       3.997235      1.412230     -1.082156
  H       5.200097      1.271969      0.224309
  H       3.519829      1.670499      0.652175
  H       3.408534     -0.576422      1.148063
  H       4.727436     -0.976938      0.036965
  H       3.285435     -1.494025     -1.629384
  H       2.443296      0.106254     -1.520692
  H       1.291280     -2.359691     -0.974228
  H       1.982360     -1.955041      0.612636
  H       0.340536      0.215343     -0.814962
  H       0.460445     -0.121665      0.922878
  H      -1.009219     -1.857728      0.830069
  H      -0.711756     -2.250280     -0.896520
  H      -1.566892      0.271795     -1.253305
  H      -2.761118     -1.090680     -1.066686
  H      -1.674674      0.863792      1.042821
  H      -2.557496     -0.621637      1.468908
  H      -4.468639      0.103362      0.019030
  H      -4.180819      1.031507      1.587546
  H      -3.699414      1.970539     -1.298306
  H      -4.810940      2.567662     -0.049146
  H      -3.083791      2.845045      0.212854
32
Coordinates from ORCA-job orca5 E -393.720780513657
  C       4.327927      1.094765     -0.021257
  C       3.928738     -0.394556      0.096957
  C       2.888048     -0.801286     -0.961319
  C       1.677112     -1.556350     -0.366946
  C       0.469171     -0.659805     -0.093675
  C      -0.872838     -1.430617     -0.183266
  C      -2.060011     -0.493665     -0.516364
  C      -2.586983      0.204121      0.738981
  C      -3.961794      0.841704      0.578040
  C      -3.955046      2.137905     -0.226755
  H       4.195947      1.471621     -1.048233
  H       5.383142      1.270806      0.260297
  H       3.715513      1.704920      0.671925
  H       3.553802     -0.575683      1.122178
  H       4.857919     -0.984994      0.005224
  H       3.387911     -1.507244     -1.657685
  H       2.544574      0.072799     -1.535565
  H       1.375316     -2.388345     -1.033185
  H       2.028359     -2.031745      0.567089
  H       0.410638      0.179807     -0.806609
  H       0.526001     -0.210731      0.917495
  H      -1.039064     -1.891194      0.809609
  H      -0.787408     -2.242752     -0.923817
  H      -1.686625      0.268236     -1.222457
  H      -2.852072     -1.097049     -1.002418
  H      -1.821926      0.921460      1.085383
  H      -2.675184     -0.568137      1.533411
  H      -4.618125      0.117935      0.066078
  H      -4.342403      1.081694      1.592919
  H      -3.825226      1.971654     -1.311765
  H      -4.953053      2.616895     -0.112996
  H      -3.232358      2.877828      0.167340
32
Coordinates from ORCA-job orca5 E -393.727395169127
  C       4.331215      1.131761     -0.001112
  C       3.936409     -0.362985      0.104518
  C       2.919336     -0.820818     -0.971067
  C       1.693607     -1.585585     -0.404592
  C       0.472163     -0.697642     -0.117962
  C      -0.885629     -1.447535     -0.195174
  C      -2.086183     -0.515125     -0.482217
  C      -2.608890      0.193757      0.778651
  C      -3.976578      0.868960      0.608085
  C      -3.942656      2.148794     -0.239879
  H       4.252392      1.499367     -1.039461
  H       5.369601      1.312418      0.331761
  H       3.682173      1.758184      0.637180
  H       3.528308     -0.545003      1.115340
  H       4.861092     -0.962959      0.040456
  H       3.439056     -1.503944     -1.666739
  H       2.573322      0.048582     -1.556312
  H       1.401767     -2.398502     -1.094206
  H       2.017594     -2.085633      0.527345
  H       0.437846      0.150394     -0.827805
  H       0.555434     -0.253624      0.891492
  H      -1.049484     -1.944448      0.780003
  H      -0.824583     -2.241206     -0.961178
  H      -1.749704      0.248290     -1.209013
  H      -2.895742     -1.106559     -0.948083
  H      -1.847299      0.922488      1.117013
  H      -2.695880     -0.562054      1.584406
  H      -4.662216      0.145859      0.129461
  H      -4.362334      1.129545      1.610146
  H      -3.779712      1.941218     -1.312488
  H      -4.918542      2.669254     -0.169186
  H      -3.185880      2.864751      0.129230
32
Coordinates from ORCA-job orca5 E -393.730898749917
  C       4.284995      1.160916      0.016944
  C       3.901943     -0.332042      0.126668
  C       2.929953     -0.835115     -0.975333
  C       1.696148     -1.605854     -0.443342
  C       0.470033     -0.720320     -0.151225
  C      -0.887891     -1.459269     -0.214485
  C      -2.096177     -0.532643     -0.459579
  C      -2.594767      0.185678      0.807210
  C      -3.950415      0.891696      0.640629
  C      -3.894874      2.145769     -0.246104
  H       4.277433      1.503294     -1.033995
  H       5.296258      1.356281      0.416913
  H       3.585551      1.803232      0.581206
  H       3.448733     -0.507397      1.119796
  H       4.825675     -0.936584      0.110207
  H       3.479552     -1.501271     -1.663099
  H       2.586550      0.025503     -1.578448
  H       1.414084     -2.401422     -1.157121
  H       1.993328     -2.130300      0.485128
  H       0.450327      0.128320     -0.862231
  H       0.574876     -0.271337      0.854161
  H      -1.043329     -1.990031      0.744542
  H      -0.846814     -2.236032     -1.000542
  H      -1.801024      0.227025     -1.208666
  H      -2.925955     -1.116943     -0.899054
  H      -1.830975      0.920559      1.130046
  H      -2.675690     -0.556205      1.624968
  H      -4.669361      0.173127      0.202379
  H      -4.329054      1.176630      1.638673
  H      -3.715404      1.895231     -1.307038
  H      -4.850783      2.700443     -0.203727
  H      -3.102925      2.839058      0.093134
32
Coordinates from ORCA-job orca5 E -393.733360614049
  C       4.223728      1.183047      0.031361
  C       3.846699     -0.304429      0.160956
  C       2.933082     -0.846457     -0.972187
  C       1.691291     -1.621094     -0.480773
  C       0.465097     -0.733752     -0.192370
  C      -0.886156     -1.471041     -0.242327
  C      -2.099395     -0.548913     -0.450119
  C      -2.558663      0.181406      0.822707
  C      -3.902774      0.912384      0.676530
  C      -3.843716      2.139512     -0.243552
  H       4.305083      1.487353     -1.028468
  H       5.195632      1.401266      0.509318
  H       3.471317      1.840529      0.502879
  H       3.340986     -0.461279      1.132239
  H       4.769012     -0.909891      0.208978
  H       3.519397     -1.502995     -1.639222
  H       2.600049      0.001651     -1.600311
  H       1.419482     -2.399971     -1.217400
  H       1.961635     -2.168500      0.443358
  H       0.449854      0.109469     -0.910250
  H       0.582581     -0.272465      0.806730
  H      -1.027753     -2.029254      0.703721
  H      -0.859948     -2.233114     -1.044196
  H      -1.842659      0.201796     -1.222064
  H      -2.947602     -1.132169     -0.856378
  H      -1.784474      0.915508      1.122912
  H      -2.628296     -0.549177      1.651386
  H      -4.655152      0.199971      0.284740
  H      -4.256483      1.222760      1.676948
  H      -3.672446      1.852848     -1.296853
  H      -4.785570      2.716559     -0.208096
  H      -3.023837      2.818440      0.058417
32
Coordinates from ORCA-job orca5 E -393.735489604347
  C       4.167319      1.199160      0.042983
  C       3.784376     -0.280190      0.200878
  C       2.935954     -0.855815     -0.963997
  C       1.684808     -1.633110     -0.516607
  C       0.460331     -0.742355     -0.238122
  C      -0.883927     -1.482853     -0.274741
  C      -2.101613     -0.564162     -0.448629
  C      -2.514365      0.180529      0.829207
  C      -3.849299      0.930837      0.713706
  C      -3.803124      2.133734     -0.234713
  H       4.348989      1.457422     -1.016757
  H       5.088574      1.444377      0.601571
  H       3.369177      1.871049      0.408044
  H       3.222208     -0.408542      1.145389
  H       4.700120     -0.885889      0.322846
  H       3.561288     -1.508797     -1.599348
  H       2.620482     -0.022174     -1.621020
  H       1.424139     -2.395864     -1.274491
  H       1.928417     -2.201341      0.402962
  H       0.443839      0.091435     -0.967161
  H       0.584430     -0.265003      0.753163
  H      -1.008634     -2.061778      0.661622
  H      -0.869726     -2.232383     -1.089233
  H      -1.879747      0.174618     -1.242539
  H      -2.965313     -1.150875     -0.817147
  H      -1.725557      0.909777      1.102050
  H      -2.568658     -0.540650      1.667383
  H      -4.630922      0.224004      0.370885
  H      -4.166363      1.265503      1.719308
  H      -3.656701      1.819203     -1.283986
  H      -4.736583      2.723272     -0.190695
  H      -2.963915      2.806858      0.025803
32
Coordinates from ORCA-job orca5 E -393.737465380053
  C       4.125598      1.209736      0.053163
  C       3.722193     -0.258461      0.241622
  C       2.940424     -0.862628     -0.952662
  C       1.678846     -1.642026     -0.550762
  C       0.456213     -0.747968     -0.285662
  C      -0.882685     -1.494015     -0.308335
  C      -2.105361     -0.578630     -0.450834
  C      -2.469926      0.182339      0.830110
  C      -3.798228      0.946738      0.750219
  C      -3.777087      2.128712     -0.222344
  H       4.413028      1.416833     -0.994491
  H       4.987172      1.482730      0.688927
  H       3.295235      1.895896      0.303287
  H       3.103493     -0.350605      1.154463
  H       4.623589     -0.866166      0.440201
  H       3.603375     -1.516495     -1.548564
  H       2.648053     -0.044015     -1.639171
  H       1.430450     -2.388780     -1.328874
  H       1.896440     -2.229301      0.363752
  H       0.435345      0.073460     -1.028853
  H       0.582896     -0.252845      0.696685
  H      -0.988698     -2.088018      0.621156
  H      -0.878761     -2.232585     -1.133200
  H      -1.915812      0.146507     -1.265485
  H      -2.981141     -1.172223     -0.778691
  H      -1.665749      0.905247      1.072652
  H      -2.506114     -0.530523      1.676623
  H      -4.603145      0.243727      0.456645
  H      -4.072378      1.304245      1.761054
  H      -3.664832      1.792897     -1.269361
  H      -4.706205      2.723561     -0.160082
  H      -2.926224      2.802654     -0.004575
32
Coordinates from ORCA-job orca5 E -393.739291893055
  C       4.105176      1.214383      0.063105
  C       3.665787     -0.238801      0.279383
  C       2.946599     -0.865819     -0.940089
  C       1.673843     -1.646571     -0.583007
  C       0.452014     -0.750276     -0.332736
  C      -0.883193     -1.503094     -0.340467
  C      -2.112160     -0.592192     -0.453186
  C      -2.430881      0.186198      0.828687
  C      -3.755156      0.959415      0.784657
  C      -3.766337      2.122820     -0.209161
  H       4.498232      1.366680     -0.959440
  H       4.901339      1.513131      0.768941
  H       3.259693      1.915165      0.194811
  H       2.994000     -0.288719      1.157184
  H       4.544011     -0.852519      0.551614
  H       3.642447     -1.524096     -1.492421
  H       2.680800     -0.061440     -1.653819
  H       1.438621     -2.376884     -1.380799
  H       1.866886     -2.251672      0.325599
  H       0.425096      0.056233     -1.092377
  H       0.578189     -0.236400      0.639721
  H      -0.969119     -2.108002      0.584221
  H      -0.888360     -2.231593     -1.174329
  H      -1.953892      0.118687     -1.287065
  H      -2.996173     -1.195608     -0.738632
  H      -1.613193      0.903448      1.039851
  H      -2.447332     -0.518840      1.682584
  H      -4.576597      0.257665      0.538281
  H      -3.985021      1.338888      1.798691
  H      -3.690984      1.769553     -1.253774
  H      -4.693817      2.717792     -0.124882
  H      -2.910517      2.802470     -0.032531
32
Coordinates from ORCA-job orca5 E -393.740922034410
  C       4.111262      1.211027      0.074965
  C       3.618376     -0.221378      0.311758
  C       2.953301     -0.864086     -0.928589
  C       1.669029     -1.644418     -0.614385
  C       0.446872     -0.747021     -0.378129
  C      -0.885048     -1.507299     -0.368976
  C      -2.122092     -0.603807     -0.452222
  C      -2.399713      0.192697      0.828208
  C      -3.723480      0.968019      0.816791
  C      -3.772073      2.111822     -0.198693
  H       4.605522      1.305378     -0.910148
  H       4.840623      1.528880      0.842344
  H       3.271133      1.930102      0.090514
  H       2.898394     -0.223414      1.152249
  H       4.463121     -0.848729      0.651075
  H       3.674688     -1.529451     -1.438029
  H       2.715835     -0.071307     -1.664875
  H       1.447236     -2.357002     -1.431915
  H       1.838977     -2.267221      0.286956
  H       0.413467      0.042570     -1.155588
  H       0.571428     -0.213680      0.583694
  H      -0.949287     -2.120722      0.551957
  H      -0.899134     -2.226321     -1.210935
  H      -1.996834      0.092922     -1.303724
  H      -3.010426     -1.219656     -0.694004
  H      -1.572934      0.907966      1.007261
  H      -2.393980     -0.503570      1.689547
  H      -4.554412      0.263304      0.615871
  H      -3.911785      1.370272      1.830507
  H      -3.730812      1.740183     -1.238740
  H      -4.700304      2.702613     -0.094395
  H      -2.916950      2.801327     -0.061735
32
Coordinates from ORCA-job orca5 E -393.742339868712
  C       4.134961      1.201312      0.089258
  C       3.576013     -0.203803      0.339511
  C       2.957811     -0.857530     -0.918164
  C       1.663738     -1.637430     -0.645065
  C       0.439799     -0.740622     -0.421837
  C      -0.887935     -1.508500     -0.394557
  C      -2.133138     -0.614080     -0.448249
  C      -2.373132      0.200734      0.828736
  C      -3.698387      0.973977      0.847045
  C      -3.786926      2.095566     -0.190938
  H       4.723538      1.234103     -0.847014
  H       4.797067      1.534268      0.909669
  H       3.319033      1.941591     -0.008093
  H       2.813373     -0.152993      1.140338
  H       4.378150     -0.850882      0.739932
  H       3.698867     -1.530011     -1.388524
  H       2.747885     -0.073588     -1.672155
  H       1.456706     -2.331632     -1.482149
  H       1.811992     -2.277808      0.247843
  H       0.400494      0.031371     -1.216925
  H       0.562664     -0.187752      0.528874
  H      -0.929863     -2.129604      0.522631
  H      -0.911838     -2.218698     -1.243796
  H      -2.042676      0.069010     -1.315222
  H      -3.023321     -1.242462     -0.646519
  H      -1.541300      0.917415      0.974862
  H      -2.342892     -0.485182      1.697907
  H      -4.534132      0.263680      0.691358
  H      -3.848458      1.400141      1.857186
  H      -3.776063      1.702772     -1.223758
  H      -4.716767      2.680627     -0.069783
  H      -2.935263      2.796011     -0.093790
32
Coordinates from ORCA-job orca5 E -393.743557458671
  C       4.171108      1.185658      0.105030
  C       3.536704     -0.184645      0.363585
  C       2.959220     -0.846077     -0.908102
  C       1.657732     -1.626283     -0.673692
  C       0.430165     -0.732206     -0.463391
  C      -0.891795     -1.508537     -0.418232
  C      -2.144576     -0.623863     -0.443274
  C      -2.349423      0.208982      0.828570
  C      -3.676797      0.977954      0.875303
  C      -3.806945      2.075400     -0.184312
  H       4.845164      1.152058     -0.771788
  H       4.765750      1.533779      0.969721
  H       3.396800      1.947355     -0.102480
  H       2.737818     -0.075938      1.122104
  H       4.287955     -0.855096      0.820889
  H       3.715888     -1.524199     -1.344417
  H       2.774932     -0.068630     -1.675701
  H       1.467106     -2.302925     -1.528984
  H       1.785859     -2.283330      0.210295
  H       0.385101      0.022416     -1.274977
  H       0.550443     -0.160191      0.476059
  H      -0.911683     -2.136995      0.494829
  H      -0.925794     -2.210934     -1.273676
  H      -2.089259      0.046041     -1.323373
  H      -3.034941     -1.263611     -0.599713
  H      -1.515618      0.929272      0.941094
  H      -2.292803     -0.465220      1.705609
  H      -4.514296      0.261141      0.765418
  H      -3.791194      1.428144      1.879558
  H      -3.824056      1.659907     -1.207918
  H      -4.738410      2.654405     -0.047698
  H      -2.960150      2.786167     -0.127724
32
Coordinates from ORCA-job orca5 E -393.744585459683
  C       4.222305      1.162111      0.121294
  C       3.501991     -0.163358      0.383619
  C       2.958079     -0.829001     -0.898814
  C       1.651170     -1.609788     -0.699099
  C       0.418327     -0.720549     -0.501688
  C      -0.896224     -1.507147     -0.439232
  C      -2.156863     -0.633529     -0.437781
  C      -2.330559      0.216901      0.827218
  C      -3.660833      0.979146      0.900600
  C      -3.833273      2.051945     -0.178249
  H       4.969284      1.055094     -0.688348
  H       4.753104      1.525626      1.020271
  H       3.507147      1.945562     -0.190173
  H       2.674209      0.009991      1.097336
  H       4.192967     -0.860165      0.894322
  H       3.726859     -1.511308     -1.306831
  H       2.797092     -0.055975     -1.676444
  H       1.477529     -2.270709     -1.570286
  H       1.761262     -2.281948      0.176050
  H       0.366445      0.016934     -1.328652
  H       0.534824     -0.129665      0.426261
  H      -0.894492     -2.142330      0.469510
  H      -0.939373     -2.203177     -1.299542
  H      -2.135940      0.023161     -1.329118
  H      -3.045344     -1.284206     -0.555085
  H      -1.497939      0.942825      0.906538
  H      -2.246456     -0.444544      1.711774
  H      -4.496941      0.255117      0.835561
  H      -3.743232      1.452246      1.897377
  H      -3.875138      1.614175     -1.191642
  H      -4.766793      2.623915     -0.027187
  H      -2.993191      2.772649     -0.160950
32
Coordinates from ORCA-job orca5 E -393.745457764401
  C       4.286228      1.131012      0.136403
  C       3.471655     -0.138150      0.398308
  C       2.954686     -0.806675     -0.891420
  C       1.644883     -1.589269     -0.720541
  C       0.405565     -0.706769     -0.535237
  C      -0.900569     -1.504940     -0.456146
  C      -2.169382     -0.643423     -0.431684
  C      -2.318266      0.223108      0.825525
  C      -3.652052      0.976929      0.921688
  C      -3.862990      2.027740     -0.172047
  H       5.090171      0.943349     -0.600830
  H       4.760196      1.510788      1.059680
  H       3.645200      1.935129     -0.270276
  H       2.623103      0.106657      1.064702
  H       4.092389     -0.861938      0.959994
  H       3.733360     -1.491255     -1.276794
  H       2.812995     -0.036990     -1.676390
  H       1.487718     -2.237310     -1.604559
  H       1.740408     -2.274086      0.146560
  H       0.345363      0.013918     -1.376408
  H       0.517834     -0.097444      0.380968
  H      -0.878434     -2.145742      0.448460
  H      -0.951258     -2.196190     -1.319969
  H      -2.180123      0.000289     -1.332460
  H      -3.053925     -1.304765     -0.514493
  H      -1.489499      0.955909      0.875123
  H      -2.208251     -0.425803      1.716524
  H      -4.484238      0.245838      0.895770
  H      -3.708805      1.469499      1.910793
  H      -3.923857      1.571122     -1.176018
  H      -4.799169      2.591811     -0.008733
  H      -3.030935      2.757652     -0.187880
32
Coordinates from ORCA-job orca5 E -393.746204867163
  C       4.356752      1.094018      0.148299
  C       3.443737     -0.106754      0.406696
  C       2.950534     -0.782173     -0.886066
  C       1.640017     -1.567632     -0.737050
  C       0.393867     -0.692473     -0.563776
  C      -0.904084     -1.501737     -0.469751
  C      -2.180699     -0.652200     -0.426667
  C      -2.312551      0.226223      0.824060
  C      -3.650440      0.970351      0.938851
  C      -3.893180      2.005635     -0.163272
  H       5.201952      0.818709     -0.510501
  H       4.780020      1.494225      1.087131
  H       3.803431      1.912920     -0.348492
  H       2.581786      0.216512      1.020043
  H       3.984295     -0.852788      1.020425
  H       3.738266     -1.468102     -1.250912
  H       2.824362     -0.017401     -1.678660
  H       1.498151     -2.207688     -1.629533
  H       1.724592     -2.260660      0.124605
  H       0.325323      0.012194     -1.417787
  H       0.501811     -0.065726      0.340885
  H      -0.864369     -2.146747      0.431273
  H      -0.960390     -2.189750     -1.335882
  H      -2.218087     -0.019402     -1.334328
  H      -3.059968     -1.323432     -0.482456
  H      -1.489457      0.966425      0.850973
  H      -2.180395     -0.412835      1.719196
  H      -4.477112      0.232581      0.941760
  H      -3.689446      1.475894      1.922291
  H      -3.966194      1.536741     -1.160719
  H      -4.832786      2.560782      0.010222
  H      -3.069734      2.744287     -0.202245
32
Coordinates from ORCA-job orca5 E -393.746861424392
  C       4.429554      1.051325      0.159902
  C       3.419830     -0.071496      0.408513
  C       2.945146     -0.754258     -0.884594
  C       1.636573     -1.545302     -0.750411
  C       0.383360     -0.678553     -0.585920
  C      -0.906837     -1.498292     -0.478636
  C      -2.190713     -0.660135     -0.421216
  C      -2.311627      0.227878      0.823633
  C      -3.654082      0.961586      0.952270
  C      -3.922961      1.984589     -0.155423
  H       5.298297      0.687561     -0.420275
  H       4.811578      1.472154      1.107166
  H       3.971367      1.877724     -0.415245
  H       2.554275      0.332837      0.965996
  H       3.874090     -0.833884      1.070671
  H       3.741359     -1.438746     -1.234374
  H       2.827943      0.006190     -1.682841
  H       1.507494     -2.180420     -1.648398
  H       1.715585     -2.243780      0.107238
  H       0.305786      0.012300     -1.450336
  H       0.487578     -0.037017      0.308536
  H      -0.852085     -2.145866      0.419731
  H      -0.966947     -2.184453     -1.346038
  H      -2.250129     -0.036963     -1.334304
  H      -3.063999     -1.340611     -0.455865
  H      -1.495060      0.975595      0.832969
  H      -2.160983     -0.402696      1.721890
  H      -4.474365      0.217182      0.976217
  H      -3.681693      1.476557      1.931234
  H      -4.002810      1.506728     -1.148103
  H      -4.866825      2.530021      0.025445
  H      -3.108695      2.732244     -0.210818
32
Coordinates from ORCA-job orca5 E -393.747427232465
  C       4.505641      1.000629      0.170689
  C       3.400408     -0.031954      0.404185
  C       2.941375     -0.725732     -0.886138
  C       1.634564     -1.520977     -0.760638
  C       0.375315     -0.661628     -0.603875
  C      -0.907809     -1.490986     -0.485137
  C      -2.198922     -0.664479     -0.417278
  C      -2.314908      0.229600      0.823475
  C      -3.663872      0.949144      0.963793
  C      -3.957968      1.962446     -0.146470
  H       5.381083      0.544450     -0.328425
  H       4.854836      1.443540      1.120498
  H       4.150525      1.825728     -0.474939
  H       2.541287      0.457344      0.899945
  H       3.760290     -0.801917      1.114323
  H       3.744457     -1.410362     -1.220595
  H       2.832035      0.028321     -1.691659
  H       1.515280     -2.155871     -1.660162
  H       1.710731     -2.220540      0.096259
  H       0.289646      0.017372     -1.476816
  H       0.476134     -0.007842      0.281921
  H      -0.840355     -2.139029      0.411979
  H      -0.969631     -2.177120     -1.352483
  H      -2.276298     -0.048693     -1.333999
  H      -3.065327     -1.354347     -0.436833
  H      -1.506699      0.986318      0.819781
  H      -2.147223     -0.394321      1.723399
  H      -4.475460      0.195961      1.002487
  H      -3.685420      1.469883      1.939881
  H      -4.040798      1.478518     -1.135974
  H      -4.907762      2.495170      0.041085
  H      -3.155152      2.721371     -0.213663
32
Coordinates from ORCA-job orca5 E -393.747858402665
  C       4.572292      0.948285      0.181818
  C       3.380020      0.012524      0.394236
  C       2.938177     -0.699173     -0.890380
  C       1.634253     -1.499319     -0.768479
  C       0.369824     -0.646518     -0.618500
  C      -0.907538     -1.483630     -0.491393
  C      -2.204204     -0.666520     -0.415997
  C      -2.317925      0.229727      0.823293
  C      -3.673139      0.935172      0.974563
  C      -3.989392      1.942526     -0.135008
  H       5.441044      0.402611     -0.231899
  H       4.892685      1.418721      1.128709
  H       4.322135      1.757931     -0.528717
  H       2.535793      0.585898      0.820549
  H       3.640701     -0.751492      1.152406
  H       3.748578     -1.384029     -1.207174
  H       2.834761      0.045052     -1.705916
  H       1.522622     -2.137968     -1.666349
  H       1.710411     -2.195973      0.090778
  H       0.278163      0.023699     -1.497566
  H       0.467462      0.016173      0.260993
  H      -0.830499     -2.131088      0.405341
  H      -0.969837     -2.170414     -1.358240
  H      -2.294401     -0.054685     -1.334184
  H      -3.064826     -1.363821     -0.426565
  H      -1.517674      0.994765      0.810749
  H      -2.135637     -0.390216      1.723144
  H      -4.476054      0.173301      1.022368
  H      -3.691392      1.457771      1.949734
  H      -4.073553      1.455810     -1.123029
  H      -4.944939      2.462369      0.059272
  H      -3.197910      2.712511     -0.209942
32
Coordinates from ORCA-job orca5 E -393.748128161633
  C       4.632466      0.893401      0.193673
  C       3.362844      0.059528      0.378594
  C       2.935418     -0.673323     -0.897997
  C       1.634909     -1.478557     -0.774680
  C       0.366263     -0.631866     -0.626370
  C      -0.906372     -1.475675     -0.495665
  C      -2.207525     -0.666297     -0.415444
  C      -2.322062      0.229497      0.824104
  C      -3.683792      0.920296      0.984041
  C      -4.019604      1.922396     -0.124517
  H       5.480896      0.263515     -0.134007
  H       4.930447      1.393160      1.133070
  H       4.487310      1.676616     -0.573250
  H       2.544111      0.713786      0.732455
  H       3.523714     -0.686836      1.180671
  H       3.752069     -1.358589     -1.197861
  H       2.835246      0.059202     -1.724575
  H       1.526982     -2.121168     -1.670215
  H       1.714583     -2.171689      0.087088
  H       0.269991      0.035160     -1.507374
  H       0.461432      0.033805      0.251135
  H      -0.822763     -2.122941      0.400609
  H      -0.967458     -2.162404     -1.362663
  H      -2.305772     -0.055402     -1.333425
  H      -3.063531     -1.369320     -0.422401
  H      -1.529876      1.002764      0.805723
  H      -2.127279     -0.387849      1.723117
  H      -4.477683      0.149399      1.037586
  H      -3.701492      1.443442      1.958918
  H      -4.102944      1.433417     -1.111504
  H      -4.981065      2.429250      0.074771
  H      -3.239461      2.703280     -0.204992
32
Coordinates from ORCA-job orca5 E -393.748239449894
  C       4.670140      0.851928      0.203437
  C       3.345777      0.102225      0.359661
  C       2.933301     -0.656332     -0.906826
  C       1.636719     -1.466593     -0.778475
  C       0.365980     -0.623896     -0.625907
  C      -0.904872     -1.470898     -0.499264
  C      -2.207488     -0.664298     -0.417177
  C      -2.324422      0.227066      0.825491
  C      -3.690626      0.907582      0.991458
  C      -4.038128      1.908824     -0.114261
  H       5.495142      0.158129     -0.045625
  H       4.948800      1.382828      1.131786
  H       4.611590      1.601484     -0.608141
  H       2.553569      0.819574      0.645214
  H       3.424052     -0.617370      1.198455
  H       3.755970     -1.341698     -1.189299
  H       2.834232      0.061876     -1.746008
  H       1.528332     -2.111586     -1.672300
  H       1.722347     -2.157136      0.084819
  H       0.268509      0.047844     -1.503261
  H       0.460237      0.036920      0.255474
  H      -0.820438     -2.120405      0.395313
  H      -0.963855     -2.155119     -1.368393
  H      -2.306186     -0.049863     -1.332732
  H      -3.062269     -1.368772     -0.427686
  H      -1.537699      1.005896      0.806488
  H      -2.122365     -0.391141      1.722288
  H      -4.478394      0.130459      1.045689
  H      -3.709299      1.428382      1.967563
  H      -4.120008      1.420522     -1.101692
  H      -5.003424      2.406858      0.088517
  H      -3.265220      2.696710     -0.195992
32
Coordinates from ORCA-job orca5 E -393.748270308817
  C       4.683080      0.836417      0.204604
  C       3.332588      0.131245      0.344609
  C       2.933839     -0.655395     -0.909767
  C       1.638324     -1.466207     -0.775880
  C       0.368168     -0.623122     -0.620876
  C      -0.904442     -1.468873     -0.505296
  C      -2.205552     -0.660025     -0.423511
  C      -2.325991      0.221368      0.826087
  C      -3.693786      0.897723      0.995836
  C      -4.042504      1.906126     -0.102913
  H       5.494424      0.110165      0.010091
  H       4.947134      1.395712      1.120584
  H       4.672956      1.555325     -0.636592
  H       2.555381      0.881751      0.580903
  H       3.363569     -0.561320      1.209214
  H       3.760145     -1.344164     -1.172244
  H       2.839253      0.045852     -1.763623
  H       1.527740     -2.113985     -1.667455
  H       1.726829     -2.153562      0.089689
  H       0.275128      0.056894     -1.492440
  H       0.460933      0.029132      0.266994
  H      -0.825036     -2.123406      0.386097
  H      -0.960908     -2.148026     -1.378536
  H      -2.297624     -0.037220     -1.334096
  H      -3.062249     -1.361920     -0.444535
  H      -1.540781      1.001883      0.813777
  H      -2.123597     -0.403182      1.718396
  H      -4.479832      0.118405      1.043486
  H      -3.714565      1.411140      1.975807
  H      -4.122844      1.424393     -1.093680
  H      -5.008832      2.400956      0.102716
  H      -3.270944      2.695921     -0.178833
32
Coordinates from ORCA-job orca5 E -393.748289134994
  C       4.680141      0.842145      0.197341
  C       3.328764      0.138696      0.340010
  C       2.935132     -0.662788     -0.907162
  C       1.638846     -1.471770     -0.769707
  C       0.370435     -0.626436     -0.612513
  C      -0.905228     -1.469162     -0.509375
  C      -2.203899     -0.656183     -0.429359
  C      -2.328050      0.216145      0.826359
  C      -3.695292      0.893670      0.995578
  C      -4.037751      1.910152     -0.097663
  H       5.492366      0.113706      0.015550
  H       4.939751      1.413646      1.107077
  H       4.673504      1.550163     -0.653015
  H       2.550899      0.892228      0.563440
  H       3.355473     -0.542673      1.213530
  H       3.761865     -1.354931     -1.158896
  H       2.843867      0.028695     -1.769260
  H       1.525396     -2.119978     -1.660599
  H       1.728210     -2.158252      0.096469
  H       0.283223      0.062171     -1.478027
  H       0.461616      0.016919      0.281925
  H      -0.832751     -2.129138      0.378631
  H      -0.959174     -2.142904     -1.386909
  H      -2.287442     -0.025569     -1.335402
  H      -3.063371     -1.354224     -0.461246
  H      -1.541416      0.995345      0.822675
  H      -2.130219     -0.415196      1.714881
  H      -4.482881      0.115435      1.034944
  H      -3.718776      1.400487      1.978916
  H      -4.116353      1.435001     -1.091747
  H      -5.003284      2.406471      0.108151
  H      -3.263594      2.698130     -0.165984
32
Coordinates from ORCA-job orca5 E -393.748311298248
  C       4.672137      0.859406      0.176600
  C       3.327999      0.145072      0.335334
  C       2.938275     -0.679084     -0.898335
  C       1.639341     -1.482901     -0.753708
  C       0.374354     -0.633048     -0.592222
  C      -0.907440     -1.469508     -0.516703
  C      -2.201391     -0.648391     -0.440591
  C      -2.334577      0.205616      0.827006
  C      -3.700278      0.887097      0.992349
  C      -4.026852      1.919667     -0.090653
  H       5.490940      0.136747      0.001504
  H       4.929335      1.447592      1.076334
  H       4.654271      1.554420     -0.684115
  H       2.543703      0.894263      0.550047
  H       3.364123     -0.521703      1.219567
  H       3.763981     -1.378409     -1.132906
  H       2.853254     -0.003840     -1.773844
  H       1.519874     -2.130770     -1.644015
  H       1.729859     -2.169035      0.112584
  H       0.299585      0.073424     -1.444629
  H       0.460717     -0.008576      0.315775
  H      -0.849965     -2.141942      0.363114
  H      -0.955203     -2.130739     -1.403942
  H      -2.267290     -0.002417     -1.337257
  H      -3.065890     -1.338690     -0.494883
  H      -1.544381      0.981126      0.842318
  H      -2.148377     -0.439598      1.707980
  H      -4.491863      0.112207      1.013949
  H      -3.730457      1.381193      1.981944
  H      -4.100863      1.457634     -1.091240
  H      -4.990451      2.420373      0.113752
  H      -3.246466      2.702816     -0.142502
32
Coordinates from ORCA-job orca5 E -393.748313231742
  C       4.672824      0.860981      0.172133
  C       3.329913      0.145482      0.334801
  C       2.938854     -0.680830     -0.896445
  C       1.639354     -1.483350     -0.750026
  C       0.374747     -0.632948     -0.588256
  C      -0.907775     -1.468760     -0.517708
  C      -2.201383     -0.647063     -0.441878
  C      -2.336774      0.203960      0.827491
  C      -3.702495      0.885790      0.991406
  C      -4.026344      1.920479     -0.090400
  H       5.492072      0.139018     -0.003925
  H       4.931455      1.450387      1.070656
  H       4.652320      1.554929     -0.689406
  H       2.545113      0.893973      0.550426
  H       3.368837     -0.520345      1.219697
  H       3.763949     -1.381566     -1.129191
  H       2.854653     -0.007584     -1.773611
  H       1.519015     -2.131432     -1.640075
  H       1.730068     -2.169388      0.116301
  H       0.301951      0.076164     -1.438663
  H       0.459752     -0.011192      0.321744
  H      -0.852612     -2.144105      0.360053
  H      -0.954229     -2.127136     -1.407116
  H      -2.265142      0.001107     -1.337123
  H      -3.066121     -1.336767     -0.499624
  H      -1.546316      0.979125      0.846331
  H      -2.152703     -0.443398      1.707334
  H      -4.494568      0.111320      1.010099
  H      -3.734358      1.378156      1.981807
  H      -4.098994      1.460267     -1.091916
  H      -4.989866      2.421676      0.113177
  H      -3.245195      2.703050     -0.139481
32
Coordinates from ORCA-job orca5 E -393.748313990928
  C       4.674039      0.861194      0.169479
  C       3.331363      0.146020      0.334297
  C       2.939023     -0.681386     -0.895389
  C       1.639334     -1.483078     -0.747372
  C       0.374905     -0.632380     -0.586110
  C      -0.907895     -1.467967     -0.518471
  C      -2.201488     -0.646341     -0.442386
  C      -2.338331      0.202872      0.827975
  C      -3.704132      0.884853      0.990847
  C      -4.026408      1.920635     -0.090368
  H       5.493011      0.138973     -0.006987
  H       4.934002      1.450927      1.067412
  H       4.652764      1.554547     -0.692533
  H       2.546736      0.894589      0.550566
  H       3.371507     -0.519486      1.219441
  H       3.763706     -1.382933     -1.127327
  H       2.855016     -0.009323     -1.773514
  H       1.518676     -2.131987     -1.636806
  H       1.730203     -2.168511      0.119409
  H       0.303307      0.077793     -1.435744
  H       0.458871     -0.011575      0.324682
  H      -0.853883     -2.145624      0.357601
  H      -0.953603     -2.124130     -1.409546
  H      -2.264678      0.002904     -1.336894
  H      -3.066051     -1.336131     -0.501849
  H      -1.547845      0.977957      0.849133
  H      -2.155592     -0.445746      1.707165
  H      -4.496493      0.110632      1.007913
  H      -3.737138      1.376288      1.981677
  H      -4.098134      1.461418     -1.092400
  H      -4.989930      2.422075      0.112604
  H      -3.244862      2.702919     -0.137888
