! UKS B3LYP def2-SV(P) def2/J D3BJ Opt
%scf Convergence VeryTight
SmearTemp 2000
maxiter 500
end
*xyz 0 1
C 4.147282 1.069465 -0.045593
C 3.786907 -0.402858 0.116183
C 2.781798 -0.768101 -0.943066
C 1.606868 -1.504725 -0.327974
C 0.434331 -0.599982 -0.082196
C -0.835251 -1.423727 -0.17882
C -1.974414 -0.487395 -0.563887
C -2.461376 0.178014 0.691492
C -3.81536 0.807131 0.553639
C -3.802507 2.106287 -0.204033
H 3.997235 1.41223 -1.082156
H 5.200097 1.271969 0.224309
H 3.519829 1.670499 0.652175
H 3.408534 -0.576422 1.148063
H 4.727436 -0.976938 0.036965
H 3.285435 -1.494025 -1.629384
H 2.443296 0.106254 -1.520692
H 1.29128 -2.359691 -0.974228
H 1.98236 -1.955041 0.612636
H 0.340536 0.215343 -0.814962
H 0.460445 -0.121665 0.922878
H -1.009219 -1.857728 0.830069
H -0.711756 -2.25028 -0.89652
H -1.566892 0.271795 -1.253305
H -2.761118 -1.09068 -1.066686
H -1.674674 0.863792 1.042821
H -2.557496 -0.621637 1.468908
H -4.468639 0.103362 0.01903
H -4.180819 1.031507 1.587546
H -3.699414 1.970539 -1.298306
H -4.81094 2.567662 -0.049146
H -3.083791 2.845045 0.212854
*
