! UKS B3LYP def2-SV(P) def2/J D3BJ Opt
%scf Convergence VeryTight
SmearTemp 2000
maxiter 500
end
*xyz 0 1
C 4.838956 -0.041791 -0.146837
C 3.831633 1.067931 -0.4127
C 2.484347 0.420645 -0.71383
C 1.649767 0.451144 0.561597
C 0.210456 0.240353 0.217457
C -0.243093 -1.182399 0.255116
C -1.694997 -1.180997 0.721183
C -2.545626 -0.478538 -0.313671
C -3.50796 0.502583 0.293112
C -4.955993 0.08002 0.130814
H 5.441185 -0.233398 -1.067541
H 5.472787 0.203162 0.721137
H 4.302528 -1.001227 0.060336
H 3.783883 1.698458 0.497009
H 4.175353 1.69636 -1.273333
H 1.92015 1.006538 -1.463619
H 2.648426 -0.630183 -1.020124
H 2.066391 -0.284837 1.26858
H 1.760241 1.496933 0.945856
H 0.05338 0.630801 -0.816335
H -0.402951 0.858348 0.914697
H 0.356047 -1.842116 0.899616
H -0.207809 -1.619215 -0.773339
H -2.073841 -2.199613 0.91981
H -1.692533 -0.649543 1.695483
H -3.073669 -1.272173 -0.882791
H -1.911612 0.088901 -1.036207
H -3.290702 0.66117 1.379866
H -3.433263 1.512119 -0.182316
H -5.517647 0.566874 0.967131
H -5.405384 0.463414 -0.811154
H -5.038449 -1.029724 0.218875
*
