13
Coordinates from ORCA-job orca8 E -157.531153572665
  C      -0.078024      0.057177      0.373548
  C       1.265433     -0.608904      0.147611
  C      -1.175437     -0.828589     -0.146067
  C      -0.094988      1.436795     -0.232256
  H       1.821705     -0.151474     -0.707389
  H       1.875218     -0.458865      1.074147
  H       1.106826     -1.685632     -0.082089
  H      -0.962242     -1.860898      0.229844
  H      -1.196159     -0.908035     -1.249728
  H      -2.174879     -0.573486      0.259115
  H      -0.392092      2.215481      0.515502
  H       0.958985      1.702901     -0.500140
  H      -0.705230      1.500086     -1.157410
13
Coordinates from ORCA-job orca8 E -157.541788432515
  C      -0.053213      0.042782      0.315899
  C       1.309674     -0.637575      0.154748
  C      -1.193849     -0.839208     -0.147930
  C      -0.101151      1.461628     -0.239316
  H       1.885706     -0.209146     -0.689990
  H       1.912521     -0.476503      1.075367
  H       1.186301     -1.718648     -0.035864
  H      -1.027984     -1.872301      0.223823
  H      -1.244229     -0.912233     -1.253682
  H      -2.177522     -0.532516      0.257914
  H      -0.431966      2.201521      0.521857
  H       0.920260      1.789468     -0.515978
  H      -0.735432      1.539287     -1.142161
13
Coordinates from ORCA-job orca8 E -157.547705381682
  C      -0.030253      0.024111      0.256034
  C       1.334131     -0.646833      0.156414
  C      -1.201223     -0.843143     -0.147910
  C      -0.099571      1.459527     -0.240853
  H       1.923385     -0.235501     -0.687379
  H       1.933525     -0.471806      1.072833
  H       1.241801     -1.735849      0.005990
  H      -1.081502     -1.876578      0.226376
  H      -1.280926     -0.907260     -1.255545
  H      -2.165223     -0.473982      0.250693
  H      -0.472625      2.159427      0.533924
  H       0.902311      1.835247     -0.517676
  H      -0.754713      1.549199     -1.128214
13
Coordinates from ORCA-job orca8 E -157.551145272121
  C      -0.011386      0.007525      0.194009
  C       1.346440     -0.649612      0.150649
  C      -1.202793     -0.844017     -0.150406
  C      -0.096446      1.452323     -0.239138
  H       1.950175     -0.263367     -0.697633
  H       1.941705     -0.449201      1.066432
  H       1.274037     -1.747095      0.045668
  H      -1.113494     -1.873700      0.239030
  H      -1.315475     -0.915473     -1.257159
  H      -2.146845     -0.420485      0.242719
  H      -0.513255      2.110268      0.552138
  H       0.894600      1.866700     -0.499090
  H      -0.758147      1.562692     -1.122530
13
Coordinates from ORCA-job orca8 E -157.553130514479
  C       0.001459     -0.005336      0.132810
  C       1.353834     -0.650231      0.138825
  C      -1.205368     -0.844789     -0.156049
  C      -0.093162      1.448083     -0.234708
  H       1.972189     -0.300888     -0.717723
  H       1.942496     -0.410284      1.051422
  H       1.292073     -1.753036      0.085758
  H      -1.128794     -1.865723      0.257732
  H      -1.354926     -0.941778     -1.258166
  H      -2.131890     -0.383157      0.237433
  H      -0.552748      2.062100      0.570213
  H       0.894832      1.891473     -0.456308
  H      -0.740879      1.590123     -1.126552
13
Coordinates from ORCA-job orca8 E -157.554393067734
  C       0.009299     -0.014158      0.074973
  C       1.359460     -0.651498      0.124005
  C      -1.209493     -0.846212     -0.163991
  C      -0.090568      1.448823     -0.229323
  H       1.989790     -0.349450     -0.743454
  H       1.940927     -0.360879      1.027390
  H       1.300836     -1.755878      0.128550
  H      -1.131408     -1.856504      0.275495
  H      -1.397381     -0.976648     -1.257457
  H      -2.121229     -0.362157      0.237968
  H      -0.592954      2.018977      0.583355
  H       0.898702      1.913058     -0.394993
  H      -0.706864      1.629082     -1.137832
13
Coordinates from ORCA-job orca8 E -157.555193429351
  C       0.014119     -0.019813      0.021811
  C       1.363897     -0.653762      0.108252
  C      -1.213904     -0.848224     -0.172896
  C      -0.088621      1.452825     -0.223809
  H       2.000616     -0.406744     -0.772354
  H       1.939905     -0.305367      0.994125
  H       1.303182     -1.755472      0.175328
  H      -1.126114     -1.848102      0.289060
  H      -1.437850     -1.011289     -1.254838
  H      -2.112575     -0.352284      0.244195
  H      -0.635215      1.979968      0.589380
  H       0.902436      1.931468     -0.321039
  H      -0.660762      1.673352     -1.152527
13
Coordinates from ORCA-job orca8 E -157.555596152043
  C       0.017643     -0.023474     -0.023521
  C       1.367155     -0.656226      0.092655
  C      -1.217271     -0.850085     -0.180740
  C      -0.087342      1.456988     -0.217350
  H       2.000436     -0.471099     -0.805444
  H       1.944863     -0.246596      0.949531
  H       1.301968     -1.750670      0.228694
  H      -1.118143     -1.841858      0.297025
  H      -1.471194     -1.037195     -1.251342
  H      -2.103952     -0.347515      0.254010
  H      -0.683528      1.943257      0.585873
  H       0.902918      1.945775     -0.236329
  H      -0.604435      1.715256     -1.168374
13
Coordinates from ORCA-job orca8 E -157.555715212672
  C       0.019521     -0.024572     -0.044402
  C       1.369030     -0.658106      0.082568
  C      -1.218571     -0.850974     -0.183922
  C      -0.087382      1.459689     -0.211244
  H       1.989446     -0.520786     -0.833018
  H       1.957300     -0.206461      0.909476
  H       1.300604     -1.744280      0.270980
  H      -1.113102     -1.840387      0.297724
  H      -1.486071     -1.044605     -1.249523
  H      -2.098708     -0.346913      0.262347
  H      -0.724241      1.921298      0.574537
  H       0.899165      1.954345     -0.170360
  H      -0.557873      1.738308     -1.180475
13
Coordinates from ORCA-job orca8 E -157.555797904344
  C       0.020308     -0.023891     -0.047109
  C       1.370225     -0.659793      0.076079
  C      -1.218630     -0.851130     -0.183802
  C      -0.088376      1.461969     -0.204825
  H       1.970789     -0.560711     -0.857677
  H       1.975596     -0.179669      0.873026
  H       1.300200     -1.737971      0.305040
  H      -1.110413     -1.842032      0.294098
  H      -1.488420     -1.040473     -1.249342
  H      -2.096679     -0.349306      0.268917
  H      -0.760407      1.910157      0.558361
  H       0.892660      1.961524     -0.117183
  H      -0.517737      1.747885     -1.190895
13
Coordinates from ORCA-job orca8 E -157.556006779025
  C       0.020752     -0.020862     -0.033433
  C       1.371660     -0.662808      0.066174
  C      -1.217470     -0.850556     -0.180377
  C      -0.091085      1.466026     -0.191158
  H       1.923529     -0.631418     -0.902206
  H       2.016380     -0.139860      0.800839
  H       1.302892     -1.724112      0.364108
  H      -1.107342     -1.847706      0.283409
  H      -1.480333     -1.022116     -1.250449
  H      -2.096285     -0.356939      0.279278
  H      -0.826716      1.898029      0.519087
  H       0.874495      1.975192     -0.022776
  H      -0.441360      1.753688     -1.207808
13
Coordinates from ORCA-job orca8 E -157.556263716907
  C       0.020815     -0.016465     -0.003619
  C       1.372280     -0.665923      0.059101
  C      -1.214877     -0.849180     -0.174056
  C      -0.094603      1.469837     -0.177121
  H       1.865826     -0.694239     -0.940934
  H       2.058447     -0.112842      0.728846
  H       1.310540     -1.709875      0.414987
  H      -1.106291     -1.855279      0.269390
  H      -1.459694     -0.993374     -1.252418
  H      -2.098497     -0.366751      0.287437
  H      -0.886277      1.892412      0.473679
  H       0.850344      1.990968      0.059451
  H      -0.368897      1.747268     -1.220055
13
Coordinates from ORCA-job orca8 E -157.556502426396
  C       0.020087     -0.011759      0.037913
  C       1.370260     -0.667252      0.053756
  C      -1.210798     -0.846765     -0.166116
  C      -0.097419      1.471105     -0.162571
  H       1.800286     -0.745096     -0.973118
  H       2.096413     -0.093930      0.659453
  H       1.321643     -1.695348      0.455830
  H      -1.105866     -1.862626      0.254339
  H      -1.430204     -0.959992     -1.253928
  H      -2.102670     -0.376842      0.291317
  H      -0.936386      1.889837      0.426326
  H       0.824686      2.005763      0.128741
  H      -0.300916      1.729462     -1.227254
13
Coordinates from ORCA-job orca8 E -157.556682564928
  C       0.019214     -0.009891      0.057517
  C       1.367967     -0.667588      0.042571
  C      -1.209298     -0.845132     -0.162460
  C      -0.097310      1.471821     -0.147433
  H       1.742203     -0.808941     -0.999630
  H       2.123537     -0.062381      0.575670
  H       1.337714     -1.671220      0.504221
  H      -1.103302     -1.865780      0.246162
  H      -1.420222     -0.945295     -1.253281
  H      -2.104404     -0.382943      0.295967
  H      -0.985146      1.877793      0.373654
  H       0.793835      2.014369      0.216972
  H      -0.215672      1.731745     -1.225242
13
Coordinates from ORCA-job orca8 E -157.556711678104
  C       0.011036     -0.006381      0.122736
  C       1.352908     -0.657744      0.039910
  C      -1.202169     -0.842150     -0.150832
  C      -0.094021      1.462778     -0.131896
  H       1.675699     -0.794392     -1.019751
  H       2.139380     -0.060029      0.539459
  H       1.346397     -1.665564      0.496564
  H      -1.101697     -1.869088      0.244929
  H      -1.379181     -0.931200     -1.249881
  H      -2.116573     -0.391520      0.278916
  H      -1.002429      1.892272      0.333599
  H       0.786093      2.015708      0.245266
  H      -0.166327      1.683868     -1.224331
13
Coordinates from ORCA-job orca8 E -157.556929885020
  C       0.011670     -0.009460      0.081868
  C       1.356747     -0.660986      0.022814
  C      -1.208553     -0.844386     -0.157002
  C      -0.090982      1.468376     -0.124854
  H       1.672477     -0.863720     -1.028633
  H       2.141834     -0.024312      0.472172
  H       1.360716     -1.638072      0.541513
  H      -1.099009     -1.864482      0.255130
  H      -1.417360     -0.960049     -1.247249
  H      -2.112441     -0.387206      0.288565
  H      -1.031219      1.873704      0.296322
  H       0.756533      2.011264      0.332980
  H      -0.091297      1.735888     -1.208937
13
Coordinates from ORCA-job orca8 E -157.556949355427
  C       0.010801     -0.009779      0.073194
  C       1.356986     -0.661053      0.020714
  C      -1.209360     -0.845613     -0.156887
  C      -0.090937      1.469621     -0.126370
  H       1.685991     -0.852524     -1.028806
  H       2.137620     -0.029156      0.484092
  H       1.357376     -1.643347      0.529756
  H      -1.100339     -1.860720      0.267677
  H      -1.422432     -0.977157     -1.244573
  H      -2.113037     -0.382879      0.283545
  H      -1.027844      1.876875      0.299666
  H       0.759287      2.008710      0.331293
  H      -0.094997      1.743580     -1.208613
13
Coordinates from ORCA-job orca8 E -157.556960441401
  C       0.008917     -0.008950      0.074229
  C       1.354610     -0.660423      0.010449
  C      -1.208989     -0.846655     -0.152956
  C      -0.090491      1.471237     -0.120171
  H       1.672806     -0.861925     -1.040540
  H       2.141540     -0.025300      0.458069
  H       1.362848     -1.638500      0.528103
  H      -1.102437     -1.855325      0.287813
  H      -1.419363     -0.998787     -1.238715
  H      -2.115812     -0.377862      0.274212
  H      -1.042562      1.876340      0.271424
  H       0.741167      2.009047      0.372562
  H      -0.053120      1.753658     -1.199788
13
Coordinates from ORCA-job orca8 E -157.556970112216
  C       0.008895     -0.008833      0.073568
  C       1.354952     -0.659988      0.010643
  C      -1.209281     -0.847322     -0.151060
  C      -0.090697      1.471215     -0.122473
  H       1.683494     -0.840972     -1.040797
  H       2.138365     -0.034669      0.478440
  H       1.357842     -1.647417      0.509742
  H      -1.106683     -1.852043      0.299502
  H      -1.414458     -1.008957     -1.236457
  H      -2.117583     -0.373331      0.267165
  H      -1.037228      1.878905      0.280060
  H       0.747586      2.008623      0.359257
  H      -0.066089      1.751348     -1.202903
13
Coordinates from ORCA-job orca8 E -157.556979030358
  C       0.008846     -0.008471      0.075672
  C       1.354832     -0.659189      0.007719
  C      -1.209675     -0.848033     -0.146783
  C      -0.090674      1.471115     -0.123003
  H       1.688671     -0.818444     -1.045487
  H       2.136222     -0.044463      0.493179
  H       1.353876     -1.656138      0.486950
  H      -1.114091     -1.846096      0.319857
  H      -1.402952     -1.025074     -1.231937
  H      -2.120770     -0.365793      0.255231
  H      -1.036369      1.879301      0.281101
  H       0.748721      2.009005      0.356237
  H      -0.067522      1.748837     -1.204048
13
Coordinates from ORCA-job orca8 E -157.556981761868
  C       0.008631     -0.008408      0.076659
  C       1.354482     -0.658764      0.004118
  C      -1.210164     -0.848402     -0.143944
  C      -0.090358      1.471158     -0.121852
  H       1.687321     -0.810560     -1.050499
  H       2.135781     -0.046969      0.493500
  H       1.353304     -1.658787      0.476796
  H      -1.118659     -1.841771      0.333545
  H      -1.395670     -1.036457     -1.228571
  H      -2.122735     -0.360817      0.247704
  H      -1.039390      1.877724      0.275813
  H       0.745240      2.009144      0.363994
  H      -0.058668      1.749467     -1.202574
13
Coordinates from ORCA-job orca8 E -157.556982252634
  C       0.008455     -0.008550      0.076524
  C       1.354301     -0.658735      0.002603
  C      -1.210485     -0.848466     -0.143278
  C      -0.090121      1.471203     -0.120974
  H       1.685363     -0.811027     -1.052527
  H       2.135813     -0.045881      0.490212
  H       1.353957     -1.658413      0.476059
  H      -1.119722     -1.840487      0.337254
  H      -1.393925     -1.039913     -1.227652
  H      -2.123236     -0.359361      0.245840
  H      -1.041317      1.876622      0.272508
  H       0.742985      2.009001      0.369406
  H      -0.052953      1.750565     -1.201287
