13
Coordinates from ORCA-job orca0 E -157.532237607284
  C       0.072221     -0.032482     -0.346561
  C       0.505744      1.301146      0.180439
  C      -1.411939     -0.161291     -0.122208
  C       0.859189     -1.191009      0.177817
  H      -0.337583      1.906506      0.599227
  H       0.923668      1.947962     -0.632595
  H       1.273966      1.243130      0.964704
  H      -1.690969     -0.415783      0.909117
  H      -1.839215      0.850244     -0.332060
  H      -1.879757     -0.839576     -0.877447
  H       0.274192     -1.913705      0.771976
  H       1.724278     -0.894638      0.817025
  H       1.313489     -1.791210     -0.651259
13
Coordinates from ORCA-job orca0 E -157.542179345606
  C       0.055200     -0.009352     -0.288657
  C       0.543752      1.345105      0.193433
  C      -1.450342     -0.174769     -0.137705
  C       0.860426     -1.195356      0.184854
  H      -0.265100      1.972920      0.616131
  H       0.962473      1.958003     -0.638685
  H       1.337830      1.279758      0.958958
  H      -1.744909     -0.461082      0.889360
  H      -1.936506      0.796887     -0.355547
  H      -1.867561     -0.885617     -0.881436
  H       0.268577     -1.928187      0.766273
  H       1.728501     -0.914863      0.813365
  H       1.294942     -1.774152     -0.662170
13
Coordinates from ORCA-job orca0 E -157.547533252508
  C       0.042975      0.008250     -0.224408
  C       0.560758      1.368867      0.203022
  C      -1.459370     -0.172733     -0.145605
  C       0.858225     -1.198121      0.188113
  H      -0.239006      2.008516      0.621527
  H       0.981349      1.945771     -0.648952
  H       1.367636      1.300551      0.957158
  H      -1.768815     -0.483864      0.874788
  H      -1.983699      0.772550     -0.377133
  H      -1.829904     -0.920078     -0.872549
  H       0.257742     -1.934772      0.758976
  H       1.734206     -0.930307      0.806111
  H       1.265187     -1.755336     -0.682873
13
Coordinates from ORCA-job orca0 E -157.550697153339
  C       0.032494      0.020019     -0.158674
  C       0.569190      1.380918      0.213798
  C      -1.459481     -0.169130     -0.148260
  C       0.854916     -1.197823      0.189020
  H      -0.224905      2.032570      0.626195
  H       0.990445      1.923674     -0.660096
  H       1.384834      1.314688      0.959278
  H      -1.798617     -0.488528      0.863529
  H      -2.003190      0.757438     -0.405352
  H      -1.788224     -0.952290     -0.859296
  H       0.255186     -1.939571      0.755116
  H       1.744345     -0.940760      0.792791
  H       1.230291     -1.731912     -0.709873
13
Coordinates from ORCA-job orca0 E -157.552604160038
  C       0.023582      0.024444     -0.092164
  C       0.571825      1.386392      0.226363
  C      -1.459259     -0.167334     -0.147022
  C       0.854867     -1.198231      0.189645
  H      -0.215874      2.053531      0.627688
  H       0.991600      1.896092     -0.669118
  H       1.394001      1.332429      0.965822
  H      -1.845635     -0.480060      0.852189
  H      -2.002839      0.749208     -0.438163
  H      -1.752686     -0.975576     -0.847034
  H       0.270599     -1.950605      0.758556
  H       1.763697     -0.952397      0.769382
  H       1.193406     -1.708600     -0.737969
13
Coordinates from ORCA-job orca0 E -157.553877205853
  C       0.014655      0.023414     -0.025632
  C       0.571631      1.388228      0.239989
  C      -1.461689     -0.168196     -0.143307
  C       0.857225     -1.198981      0.191814
  H      -0.207538      2.074262      0.625751
  H       0.988372      1.865343     -0.676068
  H       1.399831      1.354367      0.974318
  H      -1.903965     -0.468420      0.837605
  H      -1.991250      0.745300     -0.468824
  H      -1.724750     -0.988787     -0.841823
  H       0.300950     -1.966469      0.769255
  H       1.789548     -0.963497      0.737666
  H       1.154265     -1.687270     -0.762569
13
Coordinates from ORCA-job orca0 E -157.554736900348
  C       0.004465      0.019452      0.040935
  C       0.570097      1.387783      0.253643
  C      -1.466348     -0.170646     -0.137914
  C       0.860002     -1.199311      0.196302
  H      -0.198756      2.094647      0.620674
  H       0.982561      1.831425     -0.682282
  H       1.404583      1.377927      0.981903
  H      -1.963928     -0.460033      0.819266
  H      -1.974368      0.744435     -0.493006
  H      -1.700236     -0.992536     -0.845326
  H       0.339618     -1.984445      0.783951
  H       1.816495     -0.971923      0.701680
  H       1.113099     -1.667481     -0.781652
13
Coordinates from ORCA-job orca0 E -157.555234634218
  C      -0.007209      0.015021      0.107693
  C       0.568182      1.385680      0.266186
  C      -1.471155     -0.173044     -0.131775
  C       0.861349     -1.198380      0.202810
  H      -0.189883      2.113342      0.612798
  H       0.975315      1.793259     -0.689330
  H       1.409503      1.399799      0.986540
  H      -2.017332     -0.458926      0.798335
  H      -1.956427      0.745883     -0.508799
  H      -1.674162     -0.988803     -0.855599
  H       0.378703     -2.001644      0.798345
  H       1.839509     -0.975966      0.666356
  H       1.070890     -1.646927     -0.795383
13
Coordinates from ORCA-job orca0 E -157.555416432207
  C      -0.018547      0.011724      0.168469
  C       0.566813      1.382837      0.275026
  C      -1.474339     -0.174278     -0.125995
  C       0.860697     -1.196342      0.210600
  H      -0.181709      2.128369      0.602679
  H       0.967410      1.754046     -0.698629
  H       1.415348      1.417229      0.985960
  H      -2.056489     -0.468563      0.777828
  H      -1.942269      0.749874     -0.512366
  H      -1.647380     -0.978534     -0.870368
  H       0.408694     -2.015985      0.807649
  H       1.854164     -0.976313      0.640990
  H       1.034889     -1.624772     -0.803669
13
Coordinates from ORCA-job orca0 E -157.555449701822
  C      -0.021846      0.011383      0.184733
  C       0.567400      1.382725      0.274379
  C      -1.475805     -0.174102     -0.124151
  C       0.860164     -1.196172      0.215005
  H      -0.178151      2.132967      0.597826
  H       0.963628      1.741337     -0.705752
  H       1.419528      1.421972      0.980475
  H      -2.061675     -0.482290      0.771945
  H      -1.942907      0.753680     -0.502453
  H      -1.640117     -0.968522     -0.881181
  H       0.411069     -2.021072      0.806504
  H       1.854356     -0.977246      0.644346
  H       1.031639     -1.615366     -0.803504
13
Coordinates from ORCA-job orca0 E -157.555529683729
  C      -0.028281      0.012060      0.215128
  C       0.570435      1.383288      0.265971
  C      -1.479106     -0.173323     -0.119209
  C       0.857757     -1.195870      0.228524
  H      -0.167661      2.142991      0.583753
  H       0.952377      1.713351     -0.729533
  H       1.433197      1.430968      0.957766
  H      -2.061490     -0.533098      0.758354
  H      -1.953146      0.765352     -0.458403
  H      -1.625552     -0.932312     -0.915969
  H       0.402675     -2.032875      0.796554
  H       1.846224     -0.981847      0.673336
  H       1.039854     -1.589392     -0.798098
13
Coordinates from ORCA-job orca0 E -157.555665224557
  C      -0.034704      0.014766      0.244585
  C       0.575593      1.384097      0.248281
  C      -1.482490     -0.172138     -0.111818
  C       0.853199     -1.194993      0.248596
  H      -0.152233      2.154745      0.562745
  H       0.936205      1.680735     -0.765250
  H       1.453199      1.439283      0.919639
  H      -2.048443     -0.614425      0.736810
  H      -1.974849      0.778805     -0.380812
  H      -1.610011     -0.870839     -0.966144
  H       0.379468     -2.045886      0.777420
  H       1.827143     -0.990876      0.728866
  H       1.065206     -1.553980     -0.784743
13
Coordinates from ORCA-job orca0 E -157.555827489659
  C      -0.038690      0.018816      0.260904
  C       0.581553      1.385449      0.227112
  C      -1.485613     -0.170674     -0.104820
  C       0.848421     -1.194354      0.268223
  H      -0.137081      2.164089      0.542767
  H       0.920800      1.655697     -0.800694
  H       1.472793      1.442997      0.879075
  H      -2.023474     -0.696557      0.712526
  H      -2.001317      0.785613     -0.296178
  H      -1.602443     -0.803653     -1.011677
  H       0.349243     -2.054845      0.754109
  H       1.801622     -1.001550      0.793058
  H       1.101471     -1.521735     -0.766232
13
Coordinates from ORCA-job orca0 E -157.555996368451
  C      -0.039013      0.022788      0.257913
  C       0.587521      1.386577      0.202436
  C      -1.487485     -0.169432     -0.098280
  C       0.843512     -1.193962      0.286120
  H      -0.123870      2.168636      0.526288
  H       0.906789      1.643819     -0.834801
  H       1.490330      1.440824      0.837823
  H      -1.988136     -0.773438      0.687208
  H      -2.026648      0.786171     -0.206932
  H      -1.608297     -0.735208     -1.049551
  H       0.313699     -2.059179      0.726979
  H       1.767823     -1.011874      0.864317
  H       1.151058     -1.496428     -0.741346
13
Coordinates from ORCA-job orca0 E -157.556169762514
  C      -0.044686      0.026050      0.286965
  C       0.590517      1.382891      0.183421
  C      -1.488156     -0.168513     -0.088607
  C       0.838166     -1.190514      0.306248
  H      -0.108335      2.177614      0.503386
  H       0.887117      1.609627     -0.867782
  H       1.507430      1.444153      0.797123
  H      -1.973183     -0.843652      0.645495
  H      -2.045578      0.781909     -0.126021
  H      -1.594960     -0.659859     -1.083112
  H       0.296521     -2.067737      0.705358
  H       1.744736     -1.022933      0.916503
  H       1.177695     -1.459744     -0.720802
13
Coordinates from ORCA-job orca0 E -157.556317167940
  C      -0.037367      0.017213      0.258313
  C       0.582199      1.364118      0.155290
  C      -1.474792     -0.173260     -0.076003
  C       0.833528     -1.183410      0.318651
  H      -0.107259      2.160998      0.493132
  H       0.865017      1.624590     -0.895069
  H       1.508679      1.432862      0.756593
  H      -1.983210     -0.877414      0.614406
  H      -2.021344      0.788412     -0.040741
  H      -1.620789     -0.597023     -1.099014
  H       0.285734     -2.074647      0.680474
  H       1.708723     -1.025387      0.978491
  H       1.248166     -1.447759     -0.686350
13
Coordinates from ORCA-job orca0 E -157.556725683539
  C      -0.045337      0.023335      0.292580
  C       0.588651      1.368194      0.141204
  C      -1.484390     -0.168486     -0.070901
  C       0.833163     -1.186116      0.339112
  H      -0.090281      2.179419      0.466012
  H       0.855065      1.585948     -0.921273
  H       1.525588      1.442934      0.723726
  H      -1.960450     -0.945930      0.558584
  H      -2.060747      0.768374      0.035171
  H      -1.608777     -0.510241     -1.126543
  H       0.279373     -2.082298      0.674315
  H       1.699865     -1.039349      1.012493
  H       1.255560     -1.426491     -0.666304
13
Coordinates from ORCA-job orca0 E -157.556814818870
  C      -0.048922      0.024173      0.307404
  C       0.590041      1.363342      0.120756
  C      -1.486651     -0.165643     -0.064285
  C       0.831703     -1.185555      0.359645
  H      -0.078498      2.185640      0.439201
  H       0.841401      1.558638     -0.949323
  H       1.536542      1.445308      0.686526
  H      -1.941989     -1.007284      0.491601
  H      -2.083336      0.745093      0.126945
  H      -1.610299     -0.408536     -1.147482
  H       0.274234     -2.087913      0.669919
  H       1.682804     -1.046324      1.054578
  H       1.280254     -1.411645     -0.637309
13
Coordinates from ORCA-job orca0 E -157.556881415642
  C      -0.049624      0.019386      0.305742
  C       0.587726      1.363233      0.123890
  C      -1.490192     -0.162152     -0.068886
  C       0.837356     -1.190356      0.361940
  H      -0.084878      2.186372      0.430825
  H       0.852673      1.556996     -0.942310
  H       1.528448      1.453998      0.698359
  H      -1.949352     -1.014178      0.467229
  H      -2.092637      0.741486      0.139633
  H      -1.610981     -0.377336     -1.156878
  H       0.294070     -2.087828      0.710651
  H       1.708443     -1.036112      1.027763
  H       1.256233     -1.444216     -0.639785
13
Coordinates from ORCA-job orca0 E -157.556929165575
  C      -0.048718      0.016835      0.299775
  C       0.587204      1.360319      0.118459
  C      -1.488917     -0.160980     -0.070079
  C       0.837231     -1.190244      0.367075
  H      -0.086777      2.183089      0.423220
  H       0.854657      1.553875     -0.947547
  H       1.526556      1.453228      0.695047
  H      -1.941391     -1.032507      0.439766
  H      -2.094806      0.731941      0.172662
  H      -1.616596     -0.338715     -1.164763
  H       0.294950     -2.083810      0.727794
  H       1.709141     -1.027574      1.029479
  H       1.254752     -1.456163     -0.632714
13
Coordinates from ORCA-job orca0 E -157.556968824530
  C      -0.048377      0.013301      0.299342
  C       0.585426      1.356479      0.118688
  C      -1.485909     -0.159504     -0.074794
  C       0.837176     -1.189751      0.371322
  H      -0.094210      2.178264      0.413327
  H       0.862923      1.545626     -0.946113
  H       1.518691      1.454827      0.704282
  H      -1.934768     -1.050036      0.404349
  H      -2.095287      0.721807      0.201262
  H      -1.614494     -0.296315     -1.175853
  H       0.304288     -2.073489      0.769558
  H       1.725564     -1.009602      1.006116
  H       1.226260     -1.482314     -0.633312
13
Coordinates from ORCA-job orca0 E -157.556980122674
  C      -0.047739      0.012960      0.297999
  C       0.585483      1.357006      0.119984
  C      -1.484829     -0.159094     -0.078019
  C       0.836952     -1.190441      0.372481
  H      -0.098361      2.177137      0.409678
  H       0.868778      1.544453     -0.943563
  H       1.514663      1.456570      0.711651
  H      -1.928922     -1.057516      0.390595
  H      -2.095638      0.717229      0.210555
  H      -1.613914     -0.282125     -1.180667
  H       0.307510     -2.067121      0.790773
  H       1.734745     -1.002172      0.991158
  H       1.208556     -1.497592     -0.634449
13
Coordinates from ORCA-job orca0 E -157.556987068906
  C      -0.047333      0.013831      0.299922
  C       0.585498      1.358371      0.122676
  C      -1.483601     -0.159449     -0.080766
  C       0.836393     -1.191046      0.372883
  H      -0.101734      2.177506      0.407221
  H       0.873621      1.543915     -0.939832
  H       1.511183      1.459485      0.719404
  H      -1.925899     -1.061516      0.382289
  H      -2.095458      0.714737      0.212327
  H      -1.610472     -0.276752     -1.184101
  H       0.311045     -2.061928      0.808358
  H       1.744399     -0.998197      0.974787
  H       1.189643     -1.509663     -0.636993
13
Coordinates from ORCA-job orca0 E -157.556989525541
  C      -0.046725      0.014975      0.299921
  C       0.585766      1.359882      0.124031
  C      -1.482933     -0.160117     -0.081816
  C       0.835806     -1.191455      0.372560
  H      -0.102652      2.178367      0.407594
  H       0.875436      1.546295     -0.937833
  H       1.510265      1.461053      0.722557
  H      -1.924678     -1.062009      0.382047
  H      -2.095111      0.714246      0.210050
  H      -1.609120     -0.279313     -1.184902
  H       0.311102     -2.059819      0.813808
  H       1.747773     -0.998526      0.968351
  H       1.182355     -1.514286     -0.638193
13
Coordinates from ORCA-job orca0 E -157.556990364211
  C      -0.046388      0.015760      0.300258
  C       0.585864      1.360628      0.124537
  C      -1.482444     -0.160621     -0.082053
  C       0.835287     -1.191505      0.372543
  H      -0.102434      2.179133      0.408287
  H       0.875544      1.547896     -0.937179
  H       1.510430      1.461906      0.722983
  H      -1.924285     -1.062314      0.382035
  H      -2.095464      0.713568      0.208645
  H      -1.607886     -0.280774     -1.185100
  H       0.310690     -2.058967      0.815684
  H       1.748930     -0.999593      0.966071
  H       1.179440     -1.515823     -0.638535
13
Coordinates from ORCA-job orca0 E -157.556990546459
  C      -0.046181      0.016071      0.300029
  C       0.585915      1.360898      0.124578
  C      -1.482196     -0.160825     -0.082078
  C       0.834992     -1.191464      0.372573
  H      -0.101989      2.179438      0.409185
  H       0.875071      1.548991     -0.937162
  H       1.510913      1.462015      0.722408
  H      -1.923879     -1.062509      0.382175
  H      -2.095934      0.713049      0.208060
  H      -1.607389     -0.281300     -1.185149
  H       0.310105     -2.058576      0.816065
  H       1.748890     -1.000198      0.965916
  H       1.178965     -1.516296     -0.638424
