13
Coordinates from ORCA-job orca2 E -157.516318370915
  C      -0.013531      0.080692     -0.405817
  C       1.100578     -0.893964     -0.035812
  C       0.258437      1.320463      0.415014
  C      -1.378238     -0.501209     -0.149636
  H       0.086033      0.318044     -1.495565
  H       2.043640     -0.440969     -0.376977
  H       0.854804     -1.845263     -0.529144
  H      -0.618758      1.954400      0.570790
  H       1.094952      1.851714     -0.105926
  H       0.651839      1.063777      1.425385
  H      -1.896545     -0.692155     -1.123748
  H      -1.336756     -1.494497      0.355981
  H      -2.006439      0.232899      0.388696
13
Coordinates from ORCA-job orca2 E -157.529919395977
  C      -0.006429      0.086402     -0.409798
  C       1.108673     -0.918274     -0.109779
  C       0.267823      1.358814      0.417824
  C      -1.403195     -0.509867     -0.153357
  H       0.085685      0.339788     -1.488112
  H       2.108003     -0.518748     -0.354027
  H       0.902281     -1.916671     -0.534154
  H      -0.619991      1.998699      0.553611
  H       1.089554      1.920391     -0.070258
  H       0.638223      1.104667      1.429634
  H      -1.932845     -0.693485     -1.110321
  H      -1.360002     -1.492461      0.350534
  H      -2.037765      0.194678      0.411443
13
Coordinates from ORCA-job orca2 E -157.535366807663
  C       0.002834      0.089273     -0.412120
  C       1.100464     -0.923962     -0.175805
  C       0.274867      1.370727      0.415892
  C      -1.406209     -0.511933     -0.153874
  H       0.080462      0.364607     -1.484612
  H       2.131499     -0.566226     -0.326853
  H       0.917489     -1.945734     -0.543236
  H      -0.618390      2.014911      0.504824
  H       1.094625      1.955955     -0.036518
  H       0.599278      1.111590      1.439850
  H      -1.945372     -0.695484     -1.100191
  H      -1.352948     -1.481821      0.368027
  H      -2.038582      0.172029      0.437858
13
Coordinates from ORCA-job orca2 E -157.537670781522
  C       0.007239      0.091146     -0.415888
  C       1.095694     -0.920700     -0.228843
  C       0.278303      1.367663      0.414787
  C      -1.401879     -0.511565     -0.150597
  H       0.059444      0.392306     -1.486487
  H       2.140708     -0.584162     -0.303466
  H       0.922832     -1.955906     -0.555051
  H      -0.609728      2.024546      0.448255
  H       1.115102      1.954744     -0.004169
  H       0.545570      1.104225      1.454426
  H      -1.947216     -0.705532     -1.090499
  H      -1.336179     -1.468409      0.395813
  H      -2.029874      0.165577      0.454960
13
Coordinates from ORCA-job orca2 E -157.538973238198
  C       0.005746      0.094587     -0.422447
  C       1.096335     -0.913517     -0.272607
  C       0.279947      1.359713      0.415717
  C      -1.396892     -0.512307     -0.145141
  H       0.028076      0.420117     -1.489485
  H       2.144807     -0.583524     -0.287531
  H       0.925902     -1.957475     -0.566658
  H      -0.592052      2.038334      0.398861
  H       1.145460      1.928244      0.029212
  H       0.489348      1.093542      1.468291
  H      -1.943102     -0.728994     -1.079292
  H      -1.318783     -1.453783      0.427544
  H      -2.024777      0.168996      0.456778
13
Coordinates from ORCA-job orca2 E -157.539971692118
  C       0.000584      0.100118     -0.431372
  C       1.098701     -0.904086     -0.311738
  C       0.281516      1.351493      0.418802
  C      -1.392655     -0.514994     -0.139122
  H      -0.006041      0.446552     -1.492841
  H       2.145475     -0.573461     -0.278382
  H       0.926099     -1.954528     -0.577371
  H      -0.567912      2.056455      0.363454
  H       1.179230      1.890272      0.063346
  H       0.439185      1.082185      1.479850
  H      -1.933383     -0.768043     -1.067363
  H      -1.302958     -1.436411      0.464553
  H      -2.027823      0.178378      0.441424
13
Coordinates from ORCA-job orca2 E -157.540820875100
  C      -0.005929      0.107170     -0.441417
  C       1.100272     -0.893989     -0.348235
  C       0.283519      1.344536      0.424118
  C      -1.389081     -0.518553     -0.133348
  H      -0.037662      0.470629     -1.496238
  H       2.143400     -0.560700     -0.276482
  H       0.922784     -1.949109     -0.589109
  H      -0.541564      2.075955      0.344806
  H       1.210727      1.850747      0.097472
  H       0.399436      1.069377      1.489115
  H      -1.915993     -0.823087     -1.054323
  H      -1.289655     -1.411623      0.510205
  H      -2.040237      0.192579      0.406677
13
Coordinates from ORCA-job orca2 E -157.541596218404
  C      -0.011996      0.114790     -0.450686
  C       1.099914     -0.885008     -0.382225
  C       0.285797      1.338903      0.431444
  C      -1.385761     -0.521225     -0.128284
  H      -0.064095      0.492173     -1.498919
  H       2.139800     -0.550846     -0.281820
  H       0.916454     -1.943083     -0.603719
  H      -0.517628      2.092946      0.341219
  H       1.235916      1.817214      0.129937
  H       0.371065      1.054267      1.496837
  H      -1.889681     -0.889783     -1.039096
  H      -1.279645     -1.375809      0.564453
  H      -2.060123      0.209392      0.354100
13
Coordinates from ORCA-job orca2 E -157.542363625594
  C      -0.017111      0.122338     -0.458121
  C       1.097572     -0.877866     -0.413115
  C       0.288070      1.334162      0.440247
  C      -1.382493     -0.522152     -0.123909
  H      -0.085273      0.511192     -1.500462
  H       2.135720     -0.545710     -0.293185
  H       0.908112     -1.937392     -0.621862
  H      -0.498102      2.105924      0.348409
  H       1.254493      1.791761      0.159803
  H       0.352090      1.037127      1.503745
  H      -1.855371     -0.962060     -1.020091
  H      -1.273541     -1.328873      0.623569
  H      -2.084150      0.225481      0.288212
13
Coordinates from ORCA-job orca2 E -157.543147643019
  C      -0.021050      0.129360     -0.463290
  C       1.093322     -0.872901     -0.440092
  C       0.289989      1.330173      0.450183
  C      -1.379281     -0.521057     -0.119945
  H      -0.100825      0.527115     -1.500951
  H       2.131899     -0.545799     -0.310461
  H       0.898646     -1.932365     -0.644703
  H      -0.483655      2.114834      0.363071
  H       1.267162      1.774883      0.187702
  H       0.339963      1.018247      1.510207
  H      -1.814409     -1.036063     -0.995587
  H      -1.271987     -1.270969      0.684782
  H      -2.109760      0.238472      0.212324
13
Coordinates from ORCA-job orca2 E -157.543922439838
  C      -0.022968      0.134856     -0.465130
  C       1.087351     -0.870784     -0.461623
  C       0.291142      1.326191      0.461136
  C      -1.376245     -0.517405     -0.116343
  H      -0.109121      0.539380     -1.499879
  H       2.129266     -0.552458     -0.334666
  H       0.889598     -1.928098     -0.674971
  H      -0.475877      2.117841      0.381537
  H       1.273286      1.768576      0.214449
  H       0.332417      0.997494      1.516593
  H      -1.768417     -1.108539     -0.964362
  H      -1.276090     -1.200710      0.746598
  H      -2.134325      0.247589      0.129901
13
Coordinates from ORCA-job orca2 E -157.544584525706
  C      -0.023621      0.138501     -0.464168
  C       1.082090     -0.869555     -0.478774
  C       0.292648      1.319186      0.472482
  C      -1.374290     -0.512406     -0.113891
  H      -0.114873      0.552246     -1.495882
  H       2.127743     -0.560156     -0.359364
  H       0.883325     -1.922860     -0.710201
  H      -0.472253      2.113320      0.398226
  H       1.275711      1.765815      0.236700
  H       0.328527      0.976039      1.523714
  H      -1.721972     -1.176321     -0.927036
  H      -1.287552     -1.122015      0.804087
  H      -2.155469      0.252138      0.047347
13
Coordinates from ORCA-job orca2 E -157.545047619528
  C      -0.024681      0.141305     -0.462083
  C       1.078441     -0.868310     -0.492730
  C       0.295847      1.310179      0.484265
  C      -1.374068     -0.508177     -0.113125
  H      -0.122166      0.567235     -1.489150
  H       2.126135     -0.563888     -0.378706
  H       0.878228     -1.916189     -0.746573
  H      -0.469594      2.104599      0.417186
  H       1.277254      1.761743      0.250020
  H       0.333480      0.956898      1.532023
  H      -1.676553     -1.240285     -0.884624
  H      -1.308141     -1.041670      0.853106
  H      -2.174165      0.250491     -0.036369
13
Coordinates from ORCA-job orca2 E -157.545273333084
  C      -0.025389      0.142726     -0.458476
  C       1.075245     -0.868957     -0.501759
  C       0.300561      1.301961      0.496506
  C      -1.375602     -0.504762     -0.113375
  H      -0.127029      0.580405     -1.480593
  H       2.124070     -0.566263     -0.393310
  H       0.873377     -1.908436     -0.786995
  H      -0.469821      2.092943      0.443546
  H       1.275903      1.762308      0.253956
  H       0.351264      0.940716      1.540673
  H      -1.633012     -1.299811     -0.837041
  H      -1.338987     -0.961106      0.893408
  H      -2.190564      0.242208     -0.123299
13
Coordinates from ORCA-job orca2 E -157.545303235061
  C      -0.024955      0.141529     -0.455781
  C       1.074781     -0.870946     -0.501036
  C       0.303344      1.299035      0.500969
  C      -1.377858     -0.503519     -0.113743
  H      -0.125921      0.583298     -1.476175
  H       2.123198     -0.566602     -0.393009
  H       0.873633     -1.904222     -0.808256
  H      -0.473202      2.084800      0.458757
  H       1.272174      1.767223      0.247645
  H       0.368016      0.935887      1.543523
  H      -1.619999     -1.320103     -0.818069
  H      -1.357107     -0.930973      0.906010
  H      -2.196088      0.238526     -0.157594
13
Coordinates from ORCA-job orca2 E -157.545310490967
  C      -0.024441      0.139952     -0.454387
  C       1.075236     -0.872601     -0.498048
  C       0.304618      1.298433      0.501315
  C      -1.379265     -0.503311     -0.113903
  H      -0.124314      0.582466     -1.474490
  H       2.122544     -0.566389     -0.385126
  H       0.875476     -1.902144     -0.818239
  H      -0.476420      2.080129      0.464880
  H       1.268908      1.771241      0.239492
  H       0.378823      0.936276      1.543514
  H      -1.620514     -1.322457     -0.815478
  H      -1.363971     -0.926839      0.907501
  H      -2.196663      0.239178     -0.163789
13
Coordinates from ORCA-job orca2 E -157.545312999098
  C      -0.023977      0.138421     -0.453414
  C       1.075454     -0.874360     -0.494829
  C       0.305372      1.298583      0.500355
  C      -1.379931     -0.503306     -0.113842
  H      -0.123189      0.580466     -1.473777
  H       2.121367     -0.567325     -0.372235
  H       0.877371     -1.900138     -0.827708
  H      -0.479831      2.076339      0.468342
  H       1.265466      1.775410      0.230627
  H       0.387978      0.938177      1.542495
  H      -1.623817     -1.320262     -0.817130
  H      -1.366610     -0.929265      0.906556
  H      -2.195637      0.241191     -0.162198
13
Coordinates from ORCA-job orca2 E -157.545313120969
  C      -0.023889      0.137951     -0.453278
  C       1.075223     -0.875152     -0.493844
  C       0.305571      1.298946      0.499282
  C      -1.379812     -0.503343     -0.113508
  H      -0.123460      0.579171     -1.474013
  H       2.120278     -0.569227     -0.361839
  H       0.878198     -1.898545     -0.834486
  H      -0.481383      2.074978      0.468848
  H       1.263893      1.777489      0.226317
  H       0.391542      0.939419      1.541458
  H      -1.625554     -1.318356     -0.818457
  H      -1.365852     -0.931660      0.905917
  H      -2.194740      0.242262     -0.159155
