13
Coordinates from ORCA-job orca7 E -157.520477698170
  C       0.024603      0.214771     -0.372798
  C      -1.024911      0.970544      0.382899
  C       1.381332      0.232782      0.271012
  C      -0.372580     -1.246405     -0.453696
  H       0.139795      0.657493     -1.393540
  H      -0.989087      0.659953      1.434507
  H      -2.012992      0.658537     -0.029407
  H       1.743671      1.243255      0.527407
  H       2.089131     -0.181837     -0.491799
  H       1.455450     -0.419731      1.171073
  H      -0.035461     -1.721106     -1.394692
  H      -1.479030     -1.373403     -0.426595
  H       0.012885     -1.757647      0.455316
13
Coordinates from ORCA-job orca7 E -157.533189947076
  C       0.029056      0.179660     -0.367395
  C      -1.025285      0.945924      0.402950
  C       1.419231      0.255662      0.273136
  C      -0.396059     -1.303996     -0.484554
  H       0.127281      0.614973     -1.384097
  H      -1.002652      0.737893      1.489217
  H      -2.046556      0.774709      0.011711
  H       1.738317      1.287323      0.507906
  H       2.157863     -0.150822     -0.449031
  H       1.500474     -0.355118      1.191473
  H      -0.039893     -1.763547     -1.423667
  H      -1.498061     -1.424580     -0.483927
  H      -0.030910     -1.860874      0.395965
13
Coordinates from ORCA-job orca7 E -157.538623886092
  C       0.023485      0.152836     -0.362787
  C      -1.014794      0.915094      0.425452
  C       1.424679      0.261794      0.268073
  C      -0.402373     -1.337343     -0.505135
  H       0.094551      0.584940     -1.378764
  H      -0.974518      0.800362      1.523859
  H      -2.047039      0.873721      0.045149
  H       1.700923      1.308238      0.487434
  H       2.189320     -0.141435     -0.420973
  H       1.493058     -0.317595      1.206656
  H      -0.006882     -1.786139     -1.433751
  H      -1.500748     -1.454257     -0.536860
  H      -0.046857     -1.923010      0.361334
13
Coordinates from ORCA-job orca7 E -157.541344039042
  C       0.013424      0.133571     -0.354735
  C      -1.006348      0.885697      0.449968
  C       1.418975      0.262069      0.261870
  C      -0.401132     -1.357654     -0.519131
  H       0.055897      0.569002     -1.372117
  H      -0.935300      0.845234      1.548782
  H      -2.035891      0.946672      0.070074
  H       1.667319      1.319198      0.462893
  H       2.197335     -0.146951     -0.407226
  H       1.476109     -0.289928      1.218233
  H       0.045707     -1.799195     -1.428775
  H      -1.496778     -1.472209     -0.596897
  H      -0.066510     -1.958301      0.346747
13
Coordinates from ORCA-job orca7 E -157.542868582787
  C       0.001732      0.122792     -0.345632
  C      -1.007965      0.859920      0.475465
  C       1.411149      0.259321      0.254073
  C      -0.394587     -1.367961     -0.528211
  H       0.019222      0.566175     -1.361906
  H      -0.905485      0.875443      1.570120
  H      -2.027323      0.994352      0.090021
  H       1.653815      1.321627      0.434165
  H       2.187784     -0.164116     -0.407933
  H       1.466248     -0.270766      1.223442
  H       0.110414     -1.806460     -1.409070
  H      -1.484058     -1.482988     -0.666254
  H      -0.098141     -1.970131      0.351408
13
Coordinates from ORCA-job orca7 E -157.543898311748
  C      -0.009455      0.117461     -0.336919
  C      -1.016708      0.836684      0.500686
  C       1.404888      0.256682      0.245361
  C      -0.386486     -1.373015     -0.534303
  H      -0.012212      0.571596     -1.349469
  H      -0.886375      0.895763      1.589403
  H      -2.024034      1.024089      0.108192
  H       1.656904      1.320323      0.404227
  H       2.170122     -0.185381     -0.418018
  H       1.466292     -0.256339      1.223756
  H       0.177627     -1.811967     -1.378626
  H      -1.464875     -1.490452     -0.740996
  H      -0.142883     -1.968239      0.366394
13
Coordinates from ORCA-job orca7 E -157.544581354079
  C      -0.018974      0.114867     -0.329686
  C      -1.027159      0.814591      0.524766
  C       1.400909      0.256014      0.236134
  C      -0.379644     -1.375891     -0.539005
  H      -0.038031      0.581198     -1.336673
  H      -0.872138      0.909004      1.606904
  H      -2.024099      1.040661      0.128017
  H       1.668187      1.318885      0.374264
  H       2.151087     -0.205209     -0.431654
  H       1.473206     -0.242558      1.221281
  H       0.241847     -1.819230     -1.339781
  H      -1.441207     -1.495854     -0.819058
  H      -0.201179     -1.959272      0.384178
13
Coordinates from ORCA-job orca7 E -157.544916666642
  C      -0.026325      0.112979     -0.324689
  C      -1.034563      0.793145      0.547238
  C       1.398904      0.257649      0.226537
  C      -0.375761     -1.378243     -0.543646
  H      -0.059593      0.591522     -1.325393
  H      -0.855927      0.917873      1.622211
  H      -2.025320      1.046784      0.152794
  H       1.678980      1.319606      0.344729
  H       2.136194     -0.220467     -0.443776
  H       1.482196     -0.226565      1.217981
  H       0.300100     -1.830962     -1.293684
  H      -1.414456     -1.498535     -0.899490
  H      -0.271624     -1.947583      0.398877
13
Coordinates from ORCA-job orca7 E -157.544971624587
  C      -0.028238      0.112165     -0.324080
  C      -1.035323      0.783302      0.557014
  C       1.399230      0.259582      0.221557
  C      -0.376018     -1.379249     -0.546270
  H      -0.067546      0.596551     -1.321603
  H      -0.845011      0.921118      1.628434
  H      -2.027422      1.042531      0.169499
  H       1.682043      1.321723      0.331004
  H       2.133248     -0.224397     -0.448030
  H       1.486792     -0.217357      1.216194
  H       0.325098     -1.840853     -1.267190
  H      -1.400863     -1.497446     -0.941184
  H      -0.313184     -1.940464      0.404342
13
Coordinates from ORCA-job orca7 E -157.544985005043
  C      -0.027368      0.112243     -0.325256
  C      -1.033647      0.782306      0.557843
  C       1.400209      0.260449      0.220375
  C      -0.377434     -1.379038     -0.546938
  H      -0.067009      0.597659     -1.322206
  H      -0.840976      0.921568      1.628811
  H      -2.029689      1.035489      0.176161
  H       1.681398      1.323106      0.329053
  H       2.135486     -0.222951     -0.448171
  H       1.487914     -0.215251      1.215588
  H       0.328570     -1.845598     -1.259858
  H      -1.398821     -1.495060     -0.951451
  H      -0.325829     -1.937716      0.405735
13
Coordinates from ORCA-job orca7 E -157.544998020584
  C      -0.025495      0.112822     -0.327216
  C      -1.030714      0.783641      0.556642
  C       1.401684      0.261092      0.219548
  C      -0.379607     -1.377823     -0.547181
  H      -0.064126      0.598326     -1.324159
  H      -0.836730      0.922194      1.627650
  H      -2.033685      1.022371      0.183509
  H       1.679988      1.324427      0.329276
  H       2.139317     -0.219971     -0.448007
  H       1.488834     -0.214785      1.214690
  H       0.329138     -1.850580     -1.253353
  H      -1.398421     -1.490537     -0.959088
  H      -0.337376     -1.933971      0.407375
13
Coordinates from ORCA-job orca7 E -157.545002720674
  C      -0.024816      0.113335     -0.327676
  C      -1.029685      0.785354      0.555543
  C       1.402128      0.260926      0.219521
  C      -0.380275     -1.376828     -0.546918
  H      -0.062735      0.598344     -1.324961
  H      -0.835552      0.923311      1.626623
  H      -2.035740      1.015481      0.185204
  H       1.679876      1.324304      0.330412
  H       2.140147     -0.219056     -0.448379
  H       1.489107     -0.215993      1.214170
  H       0.328698     -1.851134     -1.251876
  H      -1.398733     -1.488398     -0.960018
  H      -0.339613     -1.932439      0.408042
13
Coordinates from ORCA-job orca7 E -157.545006828379
  C      -0.024495      0.114000     -0.327557
  C      -1.029082      0.787498      0.554641
  C       1.402378      0.260490      0.219608
  C      -0.380668     -1.375678     -0.546540
  H      -0.061921      0.598393     -1.325291
  H      -0.834401      0.925929      1.625529
  H      -2.037963      1.007815      0.185971
  H       1.680534      1.323631      0.331843
  H       2.139914     -0.218805     -0.449327
  H       1.489452     -0.217949      1.213524
  H       0.328873     -1.850487     -1.250613
  H      -1.398781     -1.486506     -0.960701
  H      -0.341035     -1.931124      0.408600
13
Coordinates from ORCA-job orca7 E -157.545008058428
  C      -0.024631      0.114298     -0.327093
  C      -1.029146      0.788315      0.554710
  C       1.402396      0.260224      0.219662
  C      -0.380710     -1.375286     -0.546466
  H      -0.062172      0.598539     -1.324972
  H      -0.833600      0.928482      1.625169
  H      -2.038938      1.004254      0.185950
  H       1.681309      1.323111      0.332383
  H       2.139236     -0.219166     -0.449976
  H       1.489660     -0.218903      1.213241
  H       0.329631     -1.849677     -1.249996
  H      -1.398462     -1.486067     -0.961532
  H      -0.341765     -1.930918      0.408606
