! UKS B3LYP def2-SV(P) def2/J D3BJ Opt
%scf Convergence VeryTight
SmearTemp 2000
maxiter 500
end
*xyz 0 2
C 0.014335 0.133011 0.331503
C -0.896459 1.134156 -0.320904
C 1.395599 0.109987 -0.247402
C -0.539714 -1.273797 0.304892
H 0.086116 0.436608 1.407166
H -0.481606 2.138623 -0.100059
H -1.08879 0.948749 -1.384881
H 1.565125 0.832498 -1.056706
H 1.673083 -0.90264 -0.636779
H 2.162445 0.326202 0.539492
H -1.345636 -1.412934 -0.433157
H -0.944143 -1.558993 1.309056
H 0.265764 -2.009744 0.056049
*
