13
Coordinates from ORCA-job orca4 E -157.507422511936
  C       0.089792     -0.072880      0.485406
  C       0.198814      1.413693      0.293692
  C      -1.328367     -0.476455      0.097331
  C       1.124415     -0.866223     -0.251913
  H       0.273194     -0.252818      1.575996
  H      -0.178502      1.649701     -0.733245
  H      -0.557889      1.872880      0.979970
  H      -1.778577     -0.958997      0.979185
  H      -1.231066     -1.130487     -0.782196
  H      -1.949483      0.382719     -0.188123
  H       1.681171     -1.580027      0.408605
  H       0.583725     -1.523462     -0.980085
  H       1.858202     -0.262108     -0.805960
13
Coordinates from ORCA-job orca4 E -157.522460924307
  C       0.070133     -0.088685      0.485117
  C       0.183000      1.415364      0.285159
  C      -1.386182     -0.510375      0.117298
  C       1.158531     -0.878974     -0.265128
  H       0.237370     -0.268964      1.567440
  H      -0.078480      1.728985     -0.748432
  H      -0.486829      1.970613      0.974175
  H      -1.849168     -1.006175      0.987233
  H      -1.349247     -1.172180     -0.761301
  H      -2.020294      0.352043     -0.151363
  H       1.725891     -1.560524      0.398303
  H       0.693516     -1.545876     -1.017829
  H       1.887188     -0.239716     -0.792009
13
Coordinates from ORCA-job orca4 E -157.528691451052
  C       0.051517     -0.088192      0.491403
  C       0.166873      1.408473      0.273858
  C      -1.406916     -0.542567      0.131123
  C       1.153611     -0.874212     -0.273408
  H       0.201850     -0.269479      1.568944
  H       0.033649      1.758133     -0.764743
  H      -0.411086      2.037659      0.970020
  H      -1.879791     -1.063008      0.981996
  H      -1.397928     -1.213268     -0.745971
  H      -2.054407      0.315506     -0.125480
  H       1.731016     -1.533214      0.396582
  H       0.725116     -1.536048     -1.048189
  H       1.871923     -0.204249     -0.777472
13
Coordinates from ORCA-job orca4 E -157.531481991928
  C       0.033188     -0.080738      0.490129
  C       0.149319      1.400724      0.257431
  C      -1.418816     -0.567161      0.141161
  C       1.141413     -0.863944     -0.277735
  H       0.174120     -0.260472      1.569716
  H       0.143606      1.759260     -0.783521
  H      -0.353515      2.078698      0.962209
  H      -1.881753     -1.123646      0.976013
  H      -1.427620     -1.231352     -0.741413
  H      -2.086449      0.283140     -0.087651
  H       1.720547     -1.513691      0.401525
  H       0.733613     -1.512454     -1.073033
  H       1.857776     -0.172826     -0.756167
13
Coordinates from ORCA-job orca4 E -157.532789044953
  C       0.018925     -0.069604      0.484346
  C       0.129875      1.401920      0.236595
  C      -1.423673     -0.584545      0.148645
  C       1.129076     -0.856497     -0.275441
  H       0.158615     -0.241485      1.566854
  H       0.232568      1.756042     -0.799319
  H      -0.325395      2.106416      0.945298
  H      -1.854502     -1.189220      0.967847
  H      -1.439893     -1.219975     -0.755097
  H      -2.118727      0.254701     -0.031552
  H       1.694503     -1.514538      0.408068
  H       0.726401     -1.486109     -1.088203
  H       1.857656     -0.161571     -0.729379
13
Coordinates from ORCA-job orca4 E -157.533785178362
  C       0.008750     -0.059065      0.477055
  C       0.110636      1.408296      0.212799
  C      -1.425615     -0.596813      0.154707
  C       1.119890     -0.853056     -0.269077
  H       0.151426     -0.217582      1.562502
  H       0.295898      1.756308     -0.812467
  H      -0.315555      2.127317      0.923412
  H      -1.813416     -1.252705      0.956116
  H      -1.446252     -1.188805     -0.777928
  H      -2.148077      0.229324      0.033765
  H       1.662107     -1.530218      0.414921
  H       0.716494     -1.462011     -1.097336
  H       1.869143     -0.165454     -0.699806
13
Coordinates from ORCA-job orca4 E -157.534797288892
  C       0.001437     -0.050387      0.470088
  C       0.092479      1.415639      0.187401
  C      -1.426307     -0.605982      0.160448
  C       1.113238     -0.852282     -0.260638
  H       0.148752     -0.191830      1.558212
  H       0.340511      1.759884     -0.824942
  H      -0.315377      2.143846      0.898443
  H      -1.767001     -1.312004      0.940284
  H      -1.452042     -1.145721     -0.803033
  H      -2.172685      0.205443      0.103010
  H       1.626887     -1.553532      0.421183
  H       0.708786     -1.440075     -1.103972
  H       1.886749     -0.177464     -0.667822
13
Coordinates from ORCA-job orca4 E -157.535853459501
  C      -0.003543     -0.043706      0.464339
  C       0.075782      1.422177      0.161322
  C      -1.426037     -0.613028      0.166393
  C       1.108401     -0.853475     -0.251016
  H       0.149078     -0.165483      1.554713
  H       0.370905      1.766156     -0.837867
  H      -0.321939      2.157210      0.870653
  H      -1.718751     -1.366768      0.920166
  H      -1.458537     -1.094174     -0.827204
  H      -2.191799      0.182236      0.174102
  H       1.589647     -1.581526      0.426233
  H       0.704557     -1.419597     -1.109867
  H       1.907665     -0.194487     -0.633305
13
Coordinates from ORCA-job orca4 E -157.536925181999
  C      -0.006677     -0.038510      0.460370
  C       0.061455      1.426572      0.135184
  C      -1.425050     -0.618671      0.173069
  C       1.104806     -0.855763     -0.241158
  H       0.150905     -0.139259      1.552479
  H       0.392130      1.772730     -0.851715
  H      -0.332994      2.168254      0.839357
  H      -1.671853     -1.417570      0.895537
  H      -1.467665     -1.037480     -0.847793
  H      -2.205380      0.158998      0.246511
  H       1.550827     -1.611638      0.429593
  H       0.705203     -1.398920     -1.117186
  H       1.929723     -0.213207     -0.595585
13
Coordinates from ORCA-job orca4 E -157.538022345292
  C      -0.008430     -0.033942      0.458116
  C       0.050040      1.428443      0.109377
  C      -1.423344     -0.623375      0.180711
  C       1.101958     -0.858366     -0.231784
  H       0.152987     -0.113728      1.551503
  H       0.408691      1.777209     -0.866571
  H      -0.346760      2.177776      0.804309
  H      -1.628153     -1.465031      0.866455
  H      -1.481027     -0.978971     -0.863006
  H      -2.213737      0.134960      0.320015
  H       1.510456     -1.642012      0.430964
  H       0.711253     -1.376158     -1.127387
  H       1.951494     -0.231270     -0.554040
13
Coordinates from ORCA-job orca4 E -157.539202162083
  C      -0.007797     -0.030271      0.458845
  C       0.043738      1.426604      0.085209
  C      -1.420431     -0.626368      0.189867
  C       1.100453     -0.861326     -0.223640
  H       0.155541     -0.090287      1.552990
  H       0.418160      1.777927     -0.883926
  H      -0.365074      2.185462      0.763378
  H      -1.591012     -1.508460      0.832810
  H      -1.499717     -0.919874     -0.871674
  H      -2.215276      0.112279      0.394910
  H       1.467912     -1.673140      0.429279
  H       0.725667     -1.349529     -1.142559
  H       1.973265     -0.247483     -0.506827
13
Coordinates from ORCA-job orca4 E -157.540488905069
  C      -0.007167     -0.024475      0.459891
  C       0.041961      1.422075      0.062212
  C      -1.416794     -0.628950      0.200284
  C       1.098857     -0.862070     -0.217686
  H       0.155038     -0.069048      1.554893
  H       0.432956      1.767062     -0.902489
  H      -0.380114      2.192741      0.719038
  H      -1.560177     -1.549766      0.794472
  H      -1.528735     -0.867582     -0.872381
  H      -2.212913      0.086642      0.471732
  H       1.424263     -1.699552      0.425462
  H       0.746578     -1.314614     -1.163151
  H       1.991673     -0.256925     -0.453615
13
Coordinates from ORCA-job orca4 E -157.541726206604
  C      -0.006116     -0.016668      0.460372
  C       0.042348      1.418093      0.041091
  C      -1.410719     -0.630201      0.211162
  C       1.096896     -0.861216     -0.212656
  H       0.153694     -0.051178      1.556761
  H       0.448523      1.744141     -0.924090
  H      -0.394887      2.200783      0.673841
  H      -1.530439     -1.585023      0.755889
  H      -1.561321     -0.823483     -0.866389
  H      -2.206888      0.058275      0.545731
  H       1.376476     -1.725947      0.416190
  H       0.768672     -1.266628     -1.187360
  H       2.009190     -0.265411     -0.391878
13
Coordinates from ORCA-job orca4 E -157.542795710857
  C      -0.004598     -0.009478      0.459915
  C       0.039932      1.417828      0.020193
  C      -1.403854     -0.630693      0.221475
  C       1.094998     -0.860947     -0.205553
  H       0.156150     -0.033671      1.557349
  H       0.457344      1.722160     -0.947402
  H      -0.413375      2.208566      0.631145
  H      -1.495567     -1.612560      0.722410
  H      -1.586365     -0.780426     -0.858310
  H      -2.200269      0.027696      0.611728
  H       1.324425     -1.756861      0.399415
  H       0.787458     -1.211907     -1.207765
  H       2.029150     -0.284171     -0.325935
13
Coordinates from ORCA-job orca4 E -157.543717487903
  C       0.000396     -0.004291      0.463177
  C       0.042916      1.417160      0.004918
  C      -1.396462     -0.628200      0.232750
  C       1.095572     -0.860062     -0.199274
  H       0.164078     -0.020706      1.560772
  H       0.450485      1.692092     -0.975875
  H      -0.439378      2.212320      0.586887
  H      -1.468455     -1.629514      0.697769
  H      -1.605894     -0.744140     -0.846615
  H      -2.191414      0.004606      0.666245
  H       1.269079     -1.791011      0.369913
  H       0.813024     -1.144020     -1.229840
  H       2.051480     -0.308701     -0.252164
13
Coordinates from ORCA-job orca4 E -157.544397984338
  C       0.001881      0.001076      0.462321
  C       0.038525      1.419189     -0.015705
  C      -1.392948     -0.629460      0.243763
  C       1.094908     -0.859293     -0.190759
  H       0.173096     -0.000247      1.559192
  H       0.449408      1.673736     -1.000072
  H      -0.459830      2.215335      0.549862
  H      -1.434952     -1.646427      0.677526
  H      -1.621339     -0.706778     -0.835064
  H      -2.186763     -0.024377      0.716742
  H       1.214168     -1.822585      0.336882
  H       0.837820     -1.082048     -1.243434
  H       2.071453     -0.342583     -0.182591
13
Coordinates from ORCA-job orca4 E -157.544776102758
  C       0.012024      0.002536      0.471502
  C       0.050615      1.415269     -0.019794
  C      -1.386390     -0.623386      0.255690
  C       1.100171     -0.857681     -0.189298
  H       0.187697      0.006595      1.567129
  H       0.412822      1.641680     -1.030647
  H      -0.492559      2.206844      0.510993
  H      -1.430643     -1.646859      0.674027
  H      -1.628859     -0.688995     -0.821208
  H      -2.174840     -0.024241      0.745241
  H       1.161307     -1.852263      0.287596
  H       0.883050     -1.008986     -1.263776
  H       2.091033     -0.374979     -0.108792
13
Coordinates from ORCA-job orca4 E -157.544955350417
  C       0.005435      0.009941      0.462172
  C       0.035012      1.417712     -0.048362
  C      -1.389478     -0.632815      0.267151
  C       1.096330     -0.855192     -0.182976
  H       0.191202      0.036575      1.556238
  H       0.439335      1.638487     -1.043327
  H      -0.493529      2.213538      0.488910
  H      -1.397271     -1.666187      0.662055
  H      -1.650942     -0.668176     -0.806426
  H      -2.175093     -0.059705      0.790378
  H       1.114313     -1.870240      0.253023
  H       0.911797     -0.959751     -1.269749
  H       2.098318     -0.408650     -0.050425
13
Coordinates from ORCA-job orca4 E -157.545001263676
  C       0.009918      0.008659      0.465433
  C       0.039012      1.415837     -0.046101
  C      -1.386552     -0.630120      0.270170
  C       1.099266     -0.855916     -0.184610
  H       0.196110      0.035088      1.559213
  H       0.418137      1.635194     -1.051675
  H      -0.503734      2.208988      0.482035
  H      -1.403146     -1.661122      0.670843
  H      -1.647674     -0.672744     -0.803240
  H      -2.169988     -0.049010      0.788179
  H       1.100805     -1.878261      0.234529
  H       0.930350     -0.940796     -1.275352
  H       2.102925     -0.420261     -0.030761
13
Coordinates from ORCA-job orca4 E -157.545015760135
  C       0.009955      0.008287      0.464289
  C       0.038059      1.415462     -0.045784
  C      -1.386600     -0.630622      0.271017
  C       1.099821     -0.855711     -0.186566
  H       0.196586      0.034269      1.558022
  H       0.415386      1.636973     -1.051551
  H      -0.501570      2.208850      0.485160
  H      -1.407152     -1.658038      0.680581
  H      -1.646730     -0.683977     -0.802188
  H      -2.170096     -0.043207      0.781830
  H       1.098563     -1.879757      0.228394
  H       0.935954     -0.935066     -1.278385
  H       2.103254     -0.421926     -0.026156
13
Coordinates from ORCA-job orca4 E -157.545030322966
  C       0.009053      0.007510      0.461721
  C       0.034010      1.414998     -0.047119
  C      -1.387050     -0.632905      0.272566
  C       1.099722     -0.855183     -0.189428
  H       0.197458      0.034241      1.555232
  H       0.414401      1.643416     -1.050230
  H      -0.495732      2.209791      0.491713
  H      -1.411641     -1.653256      0.699077
  H      -1.643497     -0.704309     -0.800524
  H      -2.171522     -0.035184      0.769847
  H       1.093645     -1.882312      0.217777
  H       0.943268     -0.925753     -1.282945
  H       2.103314     -0.425517     -0.019023
13
Coordinates from ORCA-job orca4 E -157.545032427084
  C       0.008645      0.007502      0.461502
  C       0.033080      1.415010     -0.047466
  C      -1.387145     -0.633704      0.272913
  C       1.099151     -0.854531     -0.189996
  H       0.197811      0.034110      1.554901
  H       0.416071      1.643596     -1.049460
  H      -0.493747      2.210506      0.493020
  H      -1.411945     -1.652206      0.703876
  H      -1.641728     -0.709595     -0.800312
  H      -2.172757     -0.034309      0.766325
  H       1.092174     -1.882452      0.215260
  H       0.942860     -0.922512     -1.283753
  H       2.102960     -0.425879     -0.018147
13
Coordinates from ORCA-job orca4 E -157.545033269242
  C       0.008526      0.007478      0.462005
  C       0.032680      1.415058     -0.047314
  C      -1.387004     -0.634124      0.273005
  C       1.098629     -0.854145     -0.190195
  H       0.198149      0.033893      1.555313
  H       0.417186      1.643696     -1.048714
  H      -0.493148      2.211054      0.493406
  H      -1.411749     -1.651548      0.706505
  H      -1.639341     -0.712039     -0.800593
  H      -2.173741     -0.034057      0.763792
  H       1.091363     -1.882410      0.214246
  H       0.941139     -0.921315     -1.283867
  H       2.102741     -0.426004     -0.018925
