5
Properties=species:S:1:pos:R:3:dft_forces:R:3 smiles=C config_type=methane_mol dft_energy=-1100.531352636066 pbc="F F F"
C       -0.00028156       0.00012211       0.00009684       0.00009031      -0.00285151      -0.00130702
H       -0.68358842       0.86273120      -0.08620131       0.00132728       0.00069567       0.00051920
H       -0.39814220      -0.84514361      -0.58733941       0.00085087       0.00007581       0.00200984
H        0.08696427      -0.29687638       1.05919959      -0.00060330       0.00080792       0.00030369
H        0.99504791       0.27916669      -0.38575571      -0.00166515       0.00127211      -0.00152570
4
Properties=species:S:1:pos:R:3:dft_forces:R:3 smiles=C config_type=methane_rad1 dft_energy=-1082.2280607884577 pbc="F F F"
C        0.16731113      -0.22224275       0.02521406       0.00016829       0.00048189       0.00002114
H       -0.48259331      -0.81993466      -0.62166477      -0.00117839       0.00108976       0.00032345
H        0.02665626      -0.24245345       1.11084315      -0.00191844       0.00243352      -0.00046993
H        0.95763493       0.39527085      -0.41348343       0.00292854      -0.00400516       0.00012533
4
Properties=species:S:1:pos:R:3:dft_forces:R:3 smiles=C config_type=methane_rad2 dft_energy=-1082.2279984147635 pbc="F F F"
C        0.09380972       0.21318002       0.14604430       0.00066859      -0.00059356      -0.00007132
H       -0.75688194       0.84091167      -0.13800846      -0.00230538      -0.00423058      -0.00223125
H        0.04340698      -0.39869260       1.05223666       0.00214233       0.00422319       0.00284690
H        0.99745324       0.20235290      -0.47197650      -0.00050555       0.00060095      -0.00054433
4
Properties=species:S:1:pos:R:3:dft_forces:R:3 smiles=C config_type=methane_rad3 dft_energy=-1082.2280250271726 pbc="F F F"
C       -0.02415030       0.07793974      -0.26360688       0.00027954      -0.00052465       0.00016024
H       -0.71366208       0.88632850      -0.00046009       0.00065189      -0.00086622       0.00395691
H       -0.41201256      -0.91761223      -0.50173245      -0.00073619       0.00119637      -0.00326316
H        1.05340394       0.26846898      -0.29798158      -0.00019525       0.00019450      -0.00085399
4
Properties=species:S:1:pos:R:3:dft_forces:R:3 smiles=C config_type=methane_rad4 dft_energy=-1082.2280268903633 pbc="F F F"
C       -0.24177599      -0.06958466       0.09746325       0.00044074       0.00052847       0.00006731
H       -0.60494197       0.93734607      -0.13142963      -0.00195430      -0.00110246       0.00087590
H       -0.31139033      -0.86054725      -0.65627630      -0.00066402       0.00008785       0.00046394
H        0.18563529      -0.28751616       1.08133868       0.00217758       0.00048614      -0.00140715
